*SPEF "ieee 1481-1999"
*DESIGN "R4_butter"
*DATE "11:11:11 Fri 11 11, 1111"
*VENDOR "OpenRCX"
*PROGRAM "Parallel Extraction"
*VERSION "1.0"
*DESIGN_FLOW "NAME_SCOPE LOCAL" "PIN_CAP NONE"
*DIVIDER /
*DELIMITER :
*BUS_DELIMITER []
*T_UNIT 1 NS
*C_UNIT 1 PF
*R_UNIT 1 OHM
*L_UNIT 1 HENRY

*NAME_MAP
*1 CLK
*2 RST
*3 Xio[0]
*4 net12
*5 net13
*6 net14
*7 Xro[0]
*8 net15
*9 net16
*10 net17
*11 c1
*12 c2
*13 c3
*16 xi0[0]
*17 xi0[1]
*18 xi0[2]
*19 xi0[3]
*20 xi1[0]
*21 xi1[1]
*22 xi1[2]
*23 xi1[3]
*24 xi2[0]
*25 xi2[1]
*26 xi2[2]
*27 xi2[3]
*28 xi3[0]
*29 xi3[1]
*30 xi3[2]
*31 xi3[3]
*32 xr0[0]
*33 xr0[1]
*34 xr0[2]
*35 xr0[3]
*36 xr1[0]
*37 xr1[1]
*38 xr1[2]
*39 xr1[3]
*40 xr2[0]
*41 xr2[1]
*42 xr2[2]
*43 xr2[3]
*44 xr3[0]
*45 xr3[1]
*46 xr3[2]
*47 xr3[3]
*48 Q1
*49 Q10
*50 Q12
*51 Q2
*52 Q5
*53 Q6
*54 _00_
*55 _01_
*56 _02_
*57 _03_
*58 _04_
*59 _05_
*60 _06_
*61 _07_
*62 _08_
*63 _09_
*64 _10_
*65 _11_
*66 _12_
*67 _13_
*68 _14_
*69 _15_
*70 net1
*71 net10
*72 net11
*73 net2
*74 net3
*75 net4
*76 net5
*77 net6
*78 net7
*79 net8
*80 net9
*81 ANTENNA_1
*82 FILLER_0_109
*83 FILLER_0_113
*84 FILLER_0_125
*85 FILLER_0_137
*86 FILLER_0_141
*87 FILLER_0_15
*88 FILLER_0_153
*89 FILLER_0_165
*90 FILLER_0_169
*91 FILLER_0_181
*92 FILLER_0_19
*93 FILLER_0_193
*94 FILLER_0_197
*95 FILLER_0_209
*96 FILLER_0_221
*97 FILLER_0_225
*98 FILLER_0_237
*99 FILLER_0_249
*100 FILLER_0_253
*101 FILLER_0_26
*102 FILLER_0_265
*103 FILLER_0_277
*104 FILLER_0_281
*105 FILLER_0_29
*106 FILLER_0_293
*107 FILLER_0_297
*108 FILLER_0_3
*109 FILLER_0_306
*110 FILLER_0_309
*111 FILLER_0_315
*112 FILLER_0_324
*113 FILLER_0_333
*114 FILLER_0_337
*115 FILLER_0_342
*116 FILLER_0_351
*117 FILLER_0_357
*118 FILLER_0_362
*119 FILLER_0_365
*120 FILLER_0_38
*121 FILLER_0_45
*122 FILLER_0_54
*123 FILLER_0_57
*124 FILLER_0_69
*125 FILLER_0_81
*126 FILLER_0_85
*127 FILLER_0_9
*128 FILLER_0_97
*129 FILLER_10_109
*130 FILLER_10_121
*131 FILLER_10_133
*132 FILLER_10_139
*133 FILLER_10_141
*134 FILLER_10_15
*135 FILLER_10_153
*136 FILLER_10_165
*137 FILLER_10_177
*138 FILLER_10_189
*139 FILLER_10_195
*140 FILLER_10_197
*141 FILLER_10_209
*142 FILLER_10_221
*143 FILLER_10_233
*144 FILLER_10_245
*145 FILLER_10_251
*146 FILLER_10_253
*147 FILLER_10_265
*148 FILLER_10_27
*149 FILLER_10_277
*150 FILLER_10_289
*151 FILLER_10_29
*152 FILLER_10_3
*153 FILLER_10_301
*154 FILLER_10_307
*155 FILLER_10_309
*156 FILLER_10_321
*157 FILLER_10_333
*158 FILLER_10_345
*159 FILLER_10_357
*160 FILLER_10_363
*161 FILLER_10_365
*162 FILLER_10_41
*163 FILLER_10_53
*164 FILLER_10_65
*165 FILLER_10_77
*166 FILLER_10_83
*167 FILLER_10_85
*168 FILLER_10_97
*169 FILLER_11_105
*170 FILLER_11_111
*171 FILLER_11_113
*172 FILLER_11_125
*173 FILLER_11_137
*174 FILLER_11_149
*175 FILLER_11_15
*176 FILLER_11_161
*177 FILLER_11_167
*178 FILLER_11_169
*179 FILLER_11_181
*180 FILLER_11_193
*181 FILLER_11_205
*182 FILLER_11_217
*183 FILLER_11_223
*184 FILLER_11_225
*185 FILLER_11_237
*186 FILLER_11_249
*187 FILLER_11_261
*188 FILLER_11_27
*189 FILLER_11_273
*190 FILLER_11_279
*191 FILLER_11_281
*192 FILLER_11_293
*193 FILLER_11_3
*194 FILLER_11_305
*195 FILLER_11_317
*196 FILLER_11_329
*197 FILLER_11_335
*198 FILLER_11_337
*199 FILLER_11_349
*200 FILLER_11_361
*201 FILLER_11_367
*202 FILLER_11_39
*203 FILLER_11_51
*204 FILLER_11_55
*205 FILLER_11_57
*206 FILLER_11_69
*207 FILLER_11_81
*208 FILLER_11_93
*209 FILLER_12_109
*210 FILLER_12_121
*211 FILLER_12_133
*212 FILLER_12_139
*213 FILLER_12_141
*214 FILLER_12_15
*215 FILLER_12_153
*216 FILLER_12_165
*217 FILLER_12_177
*218 FILLER_12_189
*219 FILLER_12_195
*220 FILLER_12_197
*221 FILLER_12_209
*222 FILLER_12_221
*223 FILLER_12_233
*224 FILLER_12_245
*225 FILLER_12_251
*226 FILLER_12_253
*227 FILLER_12_265
*228 FILLER_12_27
*229 FILLER_12_277
*230 FILLER_12_289
*231 FILLER_12_29
*232 FILLER_12_3
*233 FILLER_12_301
*234 FILLER_12_307
*235 FILLER_12_309
*236 FILLER_12_321
*237 FILLER_12_333
*238 FILLER_12_345
*239 FILLER_12_357
*240 FILLER_12_363
*241 FILLER_12_365
*242 FILLER_12_41
*243 FILLER_12_53
*244 FILLER_12_65
*245 FILLER_12_77
*246 FILLER_12_83
*247 FILLER_12_85
*248 FILLER_12_97
*249 FILLER_13_105
*250 FILLER_13_111
*251 FILLER_13_113
*252 FILLER_13_125
*253 FILLER_13_137
*254 FILLER_13_149
*255 FILLER_13_15
*256 FILLER_13_161
*257 FILLER_13_167
*258 FILLER_13_169
*259 FILLER_13_181
*260 FILLER_13_193
*261 FILLER_13_205
*262 FILLER_13_217
*263 FILLER_13_223
*264 FILLER_13_225
*265 FILLER_13_237
*266 FILLER_13_249
*267 FILLER_13_261
*268 FILLER_13_27
*269 FILLER_13_273
*270 FILLER_13_279
*271 FILLER_13_281
*272 FILLER_13_293
*273 FILLER_13_3
*274 FILLER_13_305
*275 FILLER_13_317
*276 FILLER_13_329
*277 FILLER_13_335
*278 FILLER_13_337
*279 FILLER_13_349
*280 FILLER_13_361
*281 FILLER_13_367
*282 FILLER_13_39
*283 FILLER_13_51
*284 FILLER_13_55
*285 FILLER_13_57
*286 FILLER_13_69
*287 FILLER_13_81
*288 FILLER_13_93
*289 FILLER_14_109
*290 FILLER_14_121
*291 FILLER_14_133
*292 FILLER_14_139
*293 FILLER_14_141
*294 FILLER_14_15
*295 FILLER_14_153
*296 FILLER_14_165
*297 FILLER_14_177
*298 FILLER_14_189
*299 FILLER_14_195
*300 FILLER_14_197
*301 FILLER_14_209
*302 FILLER_14_221
*303 FILLER_14_233
*304 FILLER_14_245
*305 FILLER_14_251
*306 FILLER_14_253
*307 FILLER_14_265
*308 FILLER_14_27
*309 FILLER_14_277
*310 FILLER_14_289
*311 FILLER_14_29
*312 FILLER_14_3
*313 FILLER_14_301
*314 FILLER_14_307
*315 FILLER_14_309
*316 FILLER_14_321
*317 FILLER_14_333
*318 FILLER_14_345
*319 FILLER_14_357
*320 FILLER_14_363
*321 FILLER_14_365
*322 FILLER_14_41
*323 FILLER_14_53
*324 FILLER_14_65
*325 FILLER_14_77
*326 FILLER_14_83
*327 FILLER_14_85
*328 FILLER_14_97
*329 FILLER_15_105
*330 FILLER_15_111
*331 FILLER_15_113
*332 FILLER_15_125
*333 FILLER_15_137
*334 FILLER_15_149
*335 FILLER_15_15
*336 FILLER_15_161
*337 FILLER_15_167
*338 FILLER_15_169
*339 FILLER_15_181
*340 FILLER_15_193
*341 FILLER_15_205
*342 FILLER_15_217
*343 FILLER_15_223
*344 FILLER_15_225
*345 FILLER_15_237
*346 FILLER_15_249
*347 FILLER_15_261
*348 FILLER_15_27
*349 FILLER_15_273
*350 FILLER_15_279
*351 FILLER_15_281
*352 FILLER_15_293
*353 FILLER_15_3
*354 FILLER_15_305
*355 FILLER_15_317
*356 FILLER_15_329
*357 FILLER_15_335
*358 FILLER_15_337
*359 FILLER_15_349
*360 FILLER_15_361
*361 FILLER_15_367
*362 FILLER_15_39
*363 FILLER_15_51
*364 FILLER_15_55
*365 FILLER_15_57
*366 FILLER_15_69
*367 FILLER_15_81
*368 FILLER_15_93
*369 FILLER_16_109
*370 FILLER_16_121
*371 FILLER_16_133
*372 FILLER_16_139
*373 FILLER_16_141
*374 FILLER_16_15
*375 FILLER_16_153
*376 FILLER_16_165
*377 FILLER_16_177
*378 FILLER_16_189
*379 FILLER_16_195
*380 FILLER_16_197
*381 FILLER_16_209
*382 FILLER_16_221
*383 FILLER_16_233
*384 FILLER_16_245
*385 FILLER_16_251
*386 FILLER_16_253
*387 FILLER_16_265
*388 FILLER_16_27
*389 FILLER_16_277
*390 FILLER_16_289
*391 FILLER_16_29
*392 FILLER_16_3
*393 FILLER_16_301
*394 FILLER_16_307
*395 FILLER_16_309
*396 FILLER_16_321
*397 FILLER_16_333
*398 FILLER_16_345
*399 FILLER_16_357
*400 FILLER_16_363
*401 FILLER_16_365
*402 FILLER_16_41
*403 FILLER_16_53
*404 FILLER_16_65
*405 FILLER_16_77
*406 FILLER_16_83
*407 FILLER_16_85
*408 FILLER_16_97
*409 FILLER_17_105
*410 FILLER_17_111
*411 FILLER_17_113
*412 FILLER_17_125
*413 FILLER_17_137
*414 FILLER_17_149
*415 FILLER_17_15
*416 FILLER_17_161
*417 FILLER_17_167
*418 FILLER_17_169
*419 FILLER_17_181
*420 FILLER_17_193
*421 FILLER_17_205
*422 FILLER_17_217
*423 FILLER_17_223
*424 FILLER_17_225
*425 FILLER_17_237
*426 FILLER_17_249
*427 FILLER_17_261
*428 FILLER_17_27
*429 FILLER_17_273
*430 FILLER_17_279
*431 FILLER_17_281
*432 FILLER_17_293
*433 FILLER_17_3
*434 FILLER_17_305
*435 FILLER_17_317
*436 FILLER_17_329
*437 FILLER_17_335
*438 FILLER_17_337
*439 FILLER_17_349
*440 FILLER_17_361
*441 FILLER_17_367
*442 FILLER_17_39
*443 FILLER_17_51
*444 FILLER_17_55
*445 FILLER_17_57
*446 FILLER_17_69
*447 FILLER_17_81
*448 FILLER_17_93
*449 FILLER_18_109
*450 FILLER_18_121
*451 FILLER_18_133
*452 FILLER_18_139
*453 FILLER_18_141
*454 FILLER_18_15
*455 FILLER_18_153
*456 FILLER_18_165
*457 FILLER_18_177
*458 FILLER_18_189
*459 FILLER_18_195
*460 FILLER_18_197
*461 FILLER_18_209
*462 FILLER_18_221
*463 FILLER_18_233
*464 FILLER_18_245
*465 FILLER_18_251
*466 FILLER_18_253
*467 FILLER_18_265
*468 FILLER_18_27
*469 FILLER_18_277
*470 FILLER_18_289
*471 FILLER_18_29
*472 FILLER_18_3
*473 FILLER_18_301
*474 FILLER_18_307
*475 FILLER_18_309
*476 FILLER_18_321
*477 FILLER_18_333
*478 FILLER_18_345
*479 FILLER_18_357
*480 FILLER_18_363
*481 FILLER_18_365
*482 FILLER_18_41
*483 FILLER_18_53
*484 FILLER_18_65
*485 FILLER_18_77
*486 FILLER_18_83
*487 FILLER_18_85
*488 FILLER_18_97
*489 FILLER_19_105
*490 FILLER_19_111
*491 FILLER_19_113
*492 FILLER_19_125
*493 FILLER_19_137
*494 FILLER_19_149
*495 FILLER_19_15
*496 FILLER_19_161
*497 FILLER_19_167
*498 FILLER_19_169
*499 FILLER_19_181
*500 FILLER_19_193
*501 FILLER_19_205
*502 FILLER_19_217
*503 FILLER_19_223
*504 FILLER_19_225
*505 FILLER_19_237
*506 FILLER_19_249
*507 FILLER_19_261
*508 FILLER_19_27
*509 FILLER_19_273
*510 FILLER_19_279
*511 FILLER_19_281
*512 FILLER_19_293
*513 FILLER_19_3
*514 FILLER_19_305
*515 FILLER_19_317
*516 FILLER_19_329
*517 FILLER_19_335
*518 FILLER_19_337
*519 FILLER_19_349
*520 FILLER_19_361
*521 FILLER_19_367
*522 FILLER_19_39
*523 FILLER_19_51
*524 FILLER_19_55
*525 FILLER_19_57
*526 FILLER_19_69
*527 FILLER_19_81
*528 FILLER_19_93
*529 FILLER_1_101
*530 FILLER_1_109
*531 FILLER_1_113
*532 FILLER_1_131
*533 FILLER_1_143
*534 FILLER_1_155
*535 FILLER_1_167
*536 FILLER_1_169
*537 FILLER_1_18
*538 FILLER_1_181
*539 FILLER_1_193
*540 FILLER_1_205
*541 FILLER_1_217
*542 FILLER_1_223
*543 FILLER_1_225
*544 FILLER_1_237
*545 FILLER_1_249
*546 FILLER_1_26
*547 FILLER_1_261
*548 FILLER_1_273
*549 FILLER_1_279
*550 FILLER_1_281
*551 FILLER_1_293
*552 FILLER_1_3
*553 FILLER_1_305
*554 FILLER_1_317
*555 FILLER_1_329
*556 FILLER_1_335
*557 FILLER_1_337
*558 FILLER_1_34
*559 FILLER_1_349
*560 FILLER_1_360
*561 FILLER_1_43
*562 FILLER_1_52
*563 FILLER_1_57
*564 FILLER_1_64
*565 FILLER_1_77
*566 FILLER_1_89
*567 FILLER_20_109
*568 FILLER_20_121
*569 FILLER_20_133
*570 FILLER_20_139
*571 FILLER_20_141
*572 FILLER_20_15
*573 FILLER_20_153
*574 FILLER_20_165
*575 FILLER_20_177
*576 FILLER_20_189
*577 FILLER_20_195
*578 FILLER_20_197
*579 FILLER_20_209
*580 FILLER_20_221
*581 FILLER_20_233
*582 FILLER_20_245
*583 FILLER_20_251
*584 FILLER_20_253
*585 FILLER_20_265
*586 FILLER_20_27
*587 FILLER_20_277
*588 FILLER_20_289
*589 FILLER_20_29
*590 FILLER_20_3
*591 FILLER_20_301
*592 FILLER_20_307
*593 FILLER_20_309
*594 FILLER_20_321
*595 FILLER_20_333
*596 FILLER_20_345
*597 FILLER_20_357
*598 FILLER_20_363
*599 FILLER_20_365
*600 FILLER_20_41
*601 FILLER_20_53
*602 FILLER_20_65
*603 FILLER_20_77
*604 FILLER_20_83
*605 FILLER_20_85
*606 FILLER_20_97
*607 FILLER_21_105
*608 FILLER_21_111
*609 FILLER_21_113
*610 FILLER_21_125
*611 FILLER_21_137
*612 FILLER_21_149
*613 FILLER_21_15
*614 FILLER_21_161
*615 FILLER_21_167
*616 FILLER_21_169
*617 FILLER_21_181
*618 FILLER_21_193
*619 FILLER_21_205
*620 FILLER_21_217
*621 FILLER_21_223
*622 FILLER_21_225
*623 FILLER_21_237
*624 FILLER_21_249
*625 FILLER_21_261
*626 FILLER_21_27
*627 FILLER_21_273
*628 FILLER_21_279
*629 FILLER_21_281
*630 FILLER_21_293
*631 FILLER_21_3
*632 FILLER_21_305
*633 FILLER_21_317
*634 FILLER_21_329
*635 FILLER_21_335
*636 FILLER_21_337
*637 FILLER_21_349
*638 FILLER_21_361
*639 FILLER_21_367
*640 FILLER_21_39
*641 FILLER_21_51
*642 FILLER_21_55
*643 FILLER_21_57
*644 FILLER_21_69
*645 FILLER_21_81
*646 FILLER_21_93
*647 FILLER_22_109
*648 FILLER_22_121
*649 FILLER_22_133
*650 FILLER_22_139
*651 FILLER_22_141
*652 FILLER_22_15
*653 FILLER_22_153
*654 FILLER_22_165
*655 FILLER_22_177
*656 FILLER_22_189
*657 FILLER_22_195
*658 FILLER_22_197
*659 FILLER_22_209
*660 FILLER_22_221
*661 FILLER_22_233
*662 FILLER_22_245
*663 FILLER_22_251
*664 FILLER_22_253
*665 FILLER_22_265
*666 FILLER_22_27
*667 FILLER_22_277
*668 FILLER_22_289
*669 FILLER_22_29
*670 FILLER_22_3
*671 FILLER_22_301
*672 FILLER_22_307
*673 FILLER_22_309
*674 FILLER_22_321
*675 FILLER_22_333
*676 FILLER_22_345
*677 FILLER_22_357
*678 FILLER_22_363
*679 FILLER_22_365
*680 FILLER_22_41
*681 FILLER_22_53
*682 FILLER_22_65
*683 FILLER_22_77
*684 FILLER_22_83
*685 FILLER_22_85
*686 FILLER_22_97
*687 FILLER_23_105
*688 FILLER_23_111
*689 FILLER_23_113
*690 FILLER_23_125
*691 FILLER_23_137
*692 FILLER_23_149
*693 FILLER_23_15
*694 FILLER_23_161
*695 FILLER_23_167
*696 FILLER_23_169
*697 FILLER_23_181
*698 FILLER_23_193
*699 FILLER_23_205
*700 FILLER_23_217
*701 FILLER_23_223
*702 FILLER_23_225
*703 FILLER_23_237
*704 FILLER_23_249
*705 FILLER_23_261
*706 FILLER_23_27
*707 FILLER_23_273
*708 FILLER_23_279
*709 FILLER_23_281
*710 FILLER_23_293
*711 FILLER_23_3
*712 FILLER_23_305
*713 FILLER_23_317
*714 FILLER_23_329
*715 FILLER_23_335
*716 FILLER_23_337
*717 FILLER_23_349
*718 FILLER_23_361
*719 FILLER_23_367
*720 FILLER_23_39
*721 FILLER_23_51
*722 FILLER_23_55
*723 FILLER_23_57
*724 FILLER_23_69
*725 FILLER_23_81
*726 FILLER_23_93
*727 FILLER_24_109
*728 FILLER_24_121
*729 FILLER_24_133
*730 FILLER_24_139
*731 FILLER_24_141
*732 FILLER_24_15
*733 FILLER_24_153
*734 FILLER_24_165
*735 FILLER_24_177
*736 FILLER_24_189
*737 FILLER_24_195
*738 FILLER_24_197
*739 FILLER_24_209
*740 FILLER_24_221
*741 FILLER_24_233
*742 FILLER_24_245
*743 FILLER_24_251
*744 FILLER_24_253
*745 FILLER_24_265
*746 FILLER_24_27
*747 FILLER_24_277
*748 FILLER_24_289
*749 FILLER_24_29
*750 FILLER_24_3
*751 FILLER_24_301
*752 FILLER_24_307
*753 FILLER_24_309
*754 FILLER_24_321
*755 FILLER_24_333
*756 FILLER_24_345
*757 FILLER_24_357
*758 FILLER_24_363
*759 FILLER_24_365
*760 FILLER_24_41
*761 FILLER_24_53
*762 FILLER_24_65
*763 FILLER_24_77
*764 FILLER_24_83
*765 FILLER_24_85
*766 FILLER_24_97
*767 FILLER_25_105
*768 FILLER_25_111
*769 FILLER_25_113
*770 FILLER_25_125
*771 FILLER_25_137
*772 FILLER_25_149
*773 FILLER_25_15
*774 FILLER_25_161
*775 FILLER_25_167
*776 FILLER_25_169
*777 FILLER_25_181
*778 FILLER_25_193
*779 FILLER_25_205
*780 FILLER_25_217
*781 FILLER_25_223
*782 FILLER_25_225
*783 FILLER_25_237
*784 FILLER_25_249
*785 FILLER_25_261
*786 FILLER_25_27
*787 FILLER_25_273
*788 FILLER_25_279
*789 FILLER_25_281
*790 FILLER_25_293
*791 FILLER_25_3
*792 FILLER_25_305
*793 FILLER_25_317
*794 FILLER_25_329
*795 FILLER_25_335
*796 FILLER_25_337
*797 FILLER_25_349
*798 FILLER_25_361
*799 FILLER_25_367
*800 FILLER_25_39
*801 FILLER_25_51
*802 FILLER_25_55
*803 FILLER_25_57
*804 FILLER_25_69
*805 FILLER_25_81
*806 FILLER_25_93
*807 FILLER_26_109
*808 FILLER_26_121
*809 FILLER_26_133
*810 FILLER_26_139
*811 FILLER_26_141
*812 FILLER_26_15
*813 FILLER_26_153
*814 FILLER_26_165
*815 FILLER_26_177
*816 FILLER_26_189
*817 FILLER_26_195
*818 FILLER_26_197
*819 FILLER_26_209
*820 FILLER_26_221
*821 FILLER_26_233
*822 FILLER_26_245
*823 FILLER_26_251
*824 FILLER_26_253
*825 FILLER_26_265
*826 FILLER_26_27
*827 FILLER_26_277
*828 FILLER_26_289
*829 FILLER_26_29
*830 FILLER_26_3
*831 FILLER_26_301
*832 FILLER_26_307
*833 FILLER_26_309
*834 FILLER_26_321
*835 FILLER_26_333
*836 FILLER_26_345
*837 FILLER_26_357
*838 FILLER_26_363
*839 FILLER_26_365
*840 FILLER_26_41
*841 FILLER_26_53
*842 FILLER_26_65
*843 FILLER_26_77
*844 FILLER_26_83
*845 FILLER_26_85
*846 FILLER_26_97
*847 FILLER_27_105
*848 FILLER_27_111
*849 FILLER_27_113
*850 FILLER_27_125
*851 FILLER_27_137
*852 FILLER_27_149
*853 FILLER_27_15
*854 FILLER_27_161
*855 FILLER_27_167
*856 FILLER_27_169
*857 FILLER_27_181
*858 FILLER_27_193
*859 FILLER_27_205
*860 FILLER_27_217
*861 FILLER_27_223
*862 FILLER_27_225
*863 FILLER_27_237
*864 FILLER_27_249
*865 FILLER_27_261
*866 FILLER_27_27
*867 FILLER_27_273
*868 FILLER_27_279
*869 FILLER_27_281
*870 FILLER_27_293
*871 FILLER_27_3
*872 FILLER_27_305
*873 FILLER_27_317
*874 FILLER_27_329
*875 FILLER_27_335
*876 FILLER_27_337
*877 FILLER_27_349
*878 FILLER_27_361
*879 FILLER_27_367
*880 FILLER_27_39
*881 FILLER_27_51
*882 FILLER_27_55
*883 FILLER_27_57
*884 FILLER_27_69
*885 FILLER_27_81
*886 FILLER_27_93
*887 FILLER_28_109
*888 FILLER_28_121
*889 FILLER_28_133
*890 FILLER_28_139
*891 FILLER_28_141
*892 FILLER_28_15
*893 FILLER_28_153
*894 FILLER_28_165
*895 FILLER_28_177
*896 FILLER_28_189
*897 FILLER_28_195
*898 FILLER_28_197
*899 FILLER_28_209
*900 FILLER_28_221
*901 FILLER_28_233
*902 FILLER_28_245
*903 FILLER_28_251
*904 FILLER_28_253
*905 FILLER_28_265
*906 FILLER_28_27
*907 FILLER_28_277
*908 FILLER_28_289
*909 FILLER_28_29
*910 FILLER_28_3
*911 FILLER_28_301
*912 FILLER_28_307
*913 FILLER_28_309
*914 FILLER_28_321
*915 FILLER_28_333
*916 FILLER_28_345
*917 FILLER_28_357
*918 FILLER_28_363
*919 FILLER_28_365
*920 FILLER_28_41
*921 FILLER_28_53
*922 FILLER_28_65
*923 FILLER_28_77
*924 FILLER_28_83
*925 FILLER_28_85
*926 FILLER_28_97
*927 FILLER_29_105
*928 FILLER_29_111
*929 FILLER_29_113
*930 FILLER_29_125
*931 FILLER_29_137
*932 FILLER_29_149
*933 FILLER_29_15
*934 FILLER_29_161
*935 FILLER_29_167
*936 FILLER_29_169
*937 FILLER_29_181
*938 FILLER_29_193
*939 FILLER_29_205
*940 FILLER_29_217
*941 FILLER_29_223
*942 FILLER_29_225
*943 FILLER_29_237
*944 FILLER_29_249
*945 FILLER_29_261
*946 FILLER_29_27
*947 FILLER_29_273
*948 FILLER_29_279
*949 FILLER_29_281
*950 FILLER_29_293
*951 FILLER_29_3
*952 FILLER_29_305
*953 FILLER_29_317
*954 FILLER_29_329
*955 FILLER_29_335
*956 FILLER_29_337
*957 FILLER_29_349
*958 FILLER_29_361
*959 FILLER_29_367
*960 FILLER_29_39
*961 FILLER_29_51
*962 FILLER_29_55
*963 FILLER_29_57
*964 FILLER_29_69
*965 FILLER_29_81
*966 FILLER_29_93
*967 FILLER_2_103
*968 FILLER_2_122
*969 FILLER_2_134
*970 FILLER_2_141
*971 FILLER_2_15
*972 FILLER_2_153
*973 FILLER_2_165
*974 FILLER_2_177
*975 FILLER_2_189
*976 FILLER_2_195
*977 FILLER_2_197
*978 FILLER_2_209
*979 FILLER_2_221
*980 FILLER_2_233
*981 FILLER_2_245
*982 FILLER_2_251
*983 FILLER_2_253
*984 FILLER_2_265
*985 FILLER_2_27
*986 FILLER_2_277
*987 FILLER_2_289
*988 FILLER_2_29
*989 FILLER_2_3
*990 FILLER_2_301
*991 FILLER_2_307
*992 FILLER_2_309
*993 FILLER_2_321
*994 FILLER_2_333
*995 FILLER_2_345
*996 FILLER_2_357
*997 FILLER_2_363
*998 FILLER_2_365
*999 FILLER_2_37
*1000 FILLER_2_55
*1001 FILLER_2_75
*1002 FILLER_2_83
*1003 FILLER_2_85
*1004 FILLER_2_95
*1005 FILLER_30_109
*1006 FILLER_30_121
*1007 FILLER_30_133
*1008 FILLER_30_139
*1009 FILLER_30_141
*1010 FILLER_30_15
*1011 FILLER_30_153
*1012 FILLER_30_165
*1013 FILLER_30_177
*1014 FILLER_30_189
*1015 FILLER_30_195
*1016 FILLER_30_197
*1017 FILLER_30_209
*1018 FILLER_30_221
*1019 FILLER_30_233
*1020 FILLER_30_245
*1021 FILLER_30_251
*1022 FILLER_30_253
*1023 FILLER_30_265
*1024 FILLER_30_27
*1025 FILLER_30_277
*1026 FILLER_30_289
*1027 FILLER_30_29
*1028 FILLER_30_3
*1029 FILLER_30_301
*1030 FILLER_30_307
*1031 FILLER_30_309
*1032 FILLER_30_321
*1033 FILLER_30_333
*1034 FILLER_30_345
*1035 FILLER_30_357
*1036 FILLER_30_363
*1037 FILLER_30_365
*1038 FILLER_30_41
*1039 FILLER_30_53
*1040 FILLER_30_65
*1041 FILLER_30_77
*1042 FILLER_30_83
*1043 FILLER_30_85
*1044 FILLER_30_97
*1045 FILLER_31_105
*1046 FILLER_31_111
*1047 FILLER_31_113
*1048 FILLER_31_125
*1049 FILLER_31_137
*1050 FILLER_31_149
*1051 FILLER_31_15
*1052 FILLER_31_161
*1053 FILLER_31_167
*1054 FILLER_31_169
*1055 FILLER_31_181
*1056 FILLER_31_193
*1057 FILLER_31_205
*1058 FILLER_31_217
*1059 FILLER_31_223
*1060 FILLER_31_225
*1061 FILLER_31_237
*1062 FILLER_31_249
*1063 FILLER_31_261
*1064 FILLER_31_27
*1065 FILLER_31_273
*1066 FILLER_31_279
*1067 FILLER_31_281
*1068 FILLER_31_293
*1069 FILLER_31_3
*1070 FILLER_31_305
*1071 FILLER_31_317
*1072 FILLER_31_329
*1073 FILLER_31_335
*1074 FILLER_31_337
*1075 FILLER_31_349
*1076 FILLER_31_361
*1077 FILLER_31_367
*1078 FILLER_31_39
*1079 FILLER_31_51
*1080 FILLER_31_55
*1081 FILLER_31_57
*1082 FILLER_31_69
*1083 FILLER_31_81
*1084 FILLER_31_93
*1085 FILLER_32_109
*1086 FILLER_32_121
*1087 FILLER_32_133
*1088 FILLER_32_139
*1089 FILLER_32_141
*1090 FILLER_32_15
*1091 FILLER_32_153
*1092 FILLER_32_165
*1093 FILLER_32_177
*1094 FILLER_32_189
*1095 FILLER_32_195
*1096 FILLER_32_197
*1097 FILLER_32_209
*1098 FILLER_32_221
*1099 FILLER_32_233
*1100 FILLER_32_245
*1101 FILLER_32_251
*1102 FILLER_32_253
*1103 FILLER_32_265
*1104 FILLER_32_27
*1105 FILLER_32_277
*1106 FILLER_32_289
*1107 FILLER_32_29
*1108 FILLER_32_3
*1109 FILLER_32_301
*1110 FILLER_32_307
*1111 FILLER_32_309
*1112 FILLER_32_321
*1113 FILLER_32_333
*1114 FILLER_32_345
*1115 FILLER_32_357
*1116 FILLER_32_363
*1117 FILLER_32_365
*1118 FILLER_32_41
*1119 FILLER_32_53
*1120 FILLER_32_65
*1121 FILLER_32_77
*1122 FILLER_32_83
*1123 FILLER_32_85
*1124 FILLER_32_97
*1125 FILLER_33_105
*1126 FILLER_33_111
*1127 FILLER_33_113
*1128 FILLER_33_125
*1129 FILLER_33_137
*1130 FILLER_33_149
*1131 FILLER_33_15
*1132 FILLER_33_161
*1133 FILLER_33_167
*1134 FILLER_33_169
*1135 FILLER_33_181
*1136 FILLER_33_193
*1137 FILLER_33_205
*1138 FILLER_33_217
*1139 FILLER_33_223
*1140 FILLER_33_225
*1141 FILLER_33_237
*1142 FILLER_33_249
*1143 FILLER_33_261
*1144 FILLER_33_27
*1145 FILLER_33_273
*1146 FILLER_33_279
*1147 FILLER_33_281
*1148 FILLER_33_293
*1149 FILLER_33_3
*1150 FILLER_33_305
*1151 FILLER_33_317
*1152 FILLER_33_329
*1153 FILLER_33_335
*1154 FILLER_33_337
*1155 FILLER_33_349
*1156 FILLER_33_361
*1157 FILLER_33_367
*1158 FILLER_33_39
*1159 FILLER_33_51
*1160 FILLER_33_55
*1161 FILLER_33_57
*1162 FILLER_33_69
*1163 FILLER_33_81
*1164 FILLER_33_93
*1165 FILLER_34_109
*1166 FILLER_34_121
*1167 FILLER_34_133
*1168 FILLER_34_139
*1169 FILLER_34_141
*1170 FILLER_34_15
*1171 FILLER_34_153
*1172 FILLER_34_165
*1173 FILLER_34_177
*1174 FILLER_34_189
*1175 FILLER_34_195
*1176 FILLER_34_197
*1177 FILLER_34_209
*1178 FILLER_34_221
*1179 FILLER_34_233
*1180 FILLER_34_245
*1181 FILLER_34_251
*1182 FILLER_34_253
*1183 FILLER_34_265
*1184 FILLER_34_27
*1185 FILLER_34_277
*1186 FILLER_34_289
*1187 FILLER_34_29
*1188 FILLER_34_3
*1189 FILLER_34_301
*1190 FILLER_34_307
*1191 FILLER_34_309
*1192 FILLER_34_321
*1193 FILLER_34_333
*1194 FILLER_34_345
*1195 FILLER_34_357
*1196 FILLER_34_363
*1197 FILLER_34_365
*1198 FILLER_34_41
*1199 FILLER_34_53
*1200 FILLER_34_65
*1201 FILLER_34_77
*1202 FILLER_34_83
*1203 FILLER_34_85
*1204 FILLER_34_97
*1205 FILLER_35_105
*1206 FILLER_35_111
*1207 FILLER_35_113
*1208 FILLER_35_125
*1209 FILLER_35_137
*1210 FILLER_35_149
*1211 FILLER_35_15
*1212 FILLER_35_161
*1213 FILLER_35_167
*1214 FILLER_35_169
*1215 FILLER_35_181
*1216 FILLER_35_193
*1217 FILLER_35_205
*1218 FILLER_35_217
*1219 FILLER_35_223
*1220 FILLER_35_225
*1221 FILLER_35_237
*1222 FILLER_35_249
*1223 FILLER_35_261
*1224 FILLER_35_27
*1225 FILLER_35_273
*1226 FILLER_35_279
*1227 FILLER_35_281
*1228 FILLER_35_293
*1229 FILLER_35_3
*1230 FILLER_35_305
*1231 FILLER_35_317
*1232 FILLER_35_329
*1233 FILLER_35_335
*1234 FILLER_35_337
*1235 FILLER_35_349
*1236 FILLER_35_361
*1237 FILLER_35_367
*1238 FILLER_35_39
*1239 FILLER_35_51
*1240 FILLER_35_55
*1241 FILLER_35_57
*1242 FILLER_35_69
*1243 FILLER_35_81
*1244 FILLER_35_93
*1245 FILLER_36_109
*1246 FILLER_36_121
*1247 FILLER_36_133
*1248 FILLER_36_139
*1249 FILLER_36_141
*1250 FILLER_36_15
*1251 FILLER_36_153
*1252 FILLER_36_165
*1253 FILLER_36_177
*1254 FILLER_36_189
*1255 FILLER_36_195
*1256 FILLER_36_197
*1257 FILLER_36_209
*1258 FILLER_36_221
*1259 FILLER_36_233
*1260 FILLER_36_245
*1261 FILLER_36_251
*1262 FILLER_36_253
*1263 FILLER_36_265
*1264 FILLER_36_27
*1265 FILLER_36_277
*1266 FILLER_36_289
*1267 FILLER_36_29
*1268 FILLER_36_3
*1269 FILLER_36_301
*1270 FILLER_36_307
*1271 FILLER_36_309
*1272 FILLER_36_321
*1273 FILLER_36_333
*1274 FILLER_36_345
*1275 FILLER_36_357
*1276 FILLER_36_363
*1277 FILLER_36_365
*1278 FILLER_36_41
*1279 FILLER_36_53
*1280 FILLER_36_65
*1281 FILLER_36_77
*1282 FILLER_36_83
*1283 FILLER_36_85
*1284 FILLER_36_97
*1285 FILLER_37_105
*1286 FILLER_37_111
*1287 FILLER_37_113
*1288 FILLER_37_125
*1289 FILLER_37_137
*1290 FILLER_37_149
*1291 FILLER_37_15
*1292 FILLER_37_161
*1293 FILLER_37_167
*1294 FILLER_37_169
*1295 FILLER_37_181
*1296 FILLER_37_193
*1297 FILLER_37_205
*1298 FILLER_37_217
*1299 FILLER_37_223
*1300 FILLER_37_225
*1301 FILLER_37_237
*1302 FILLER_37_249
*1303 FILLER_37_261
*1304 FILLER_37_27
*1305 FILLER_37_273
*1306 FILLER_37_279
*1307 FILLER_37_281
*1308 FILLER_37_293
*1309 FILLER_37_3
*1310 FILLER_37_305
*1311 FILLER_37_317
*1312 FILLER_37_329
*1313 FILLER_37_335
*1314 FILLER_37_337
*1315 FILLER_37_349
*1316 FILLER_37_361
*1317 FILLER_37_367
*1318 FILLER_37_39
*1319 FILLER_37_51
*1320 FILLER_37_55
*1321 FILLER_37_57
*1322 FILLER_37_69
*1323 FILLER_37_81
*1324 FILLER_37_93
*1325 FILLER_38_109
*1326 FILLER_38_121
*1327 FILLER_38_133
*1328 FILLER_38_139
*1329 FILLER_38_141
*1330 FILLER_38_15
*1331 FILLER_38_153
*1332 FILLER_38_165
*1333 FILLER_38_177
*1334 FILLER_38_189
*1335 FILLER_38_195
*1336 FILLER_38_197
*1337 FILLER_38_209
*1338 FILLER_38_221
*1339 FILLER_38_233
*1340 FILLER_38_245
*1341 FILLER_38_251
*1342 FILLER_38_253
*1343 FILLER_38_265
*1344 FILLER_38_27
*1345 FILLER_38_277
*1346 FILLER_38_289
*1347 FILLER_38_29
*1348 FILLER_38_3
*1349 FILLER_38_301
*1350 FILLER_38_307
*1351 FILLER_38_309
*1352 FILLER_38_321
*1353 FILLER_38_333
*1354 FILLER_38_345
*1355 FILLER_38_357
*1356 FILLER_38_363
*1357 FILLER_38_365
*1358 FILLER_38_41
*1359 FILLER_38_53
*1360 FILLER_38_65
*1361 FILLER_38_77
*1362 FILLER_38_83
*1363 FILLER_38_85
*1364 FILLER_38_97
*1365 FILLER_39_105
*1366 FILLER_39_111
*1367 FILLER_39_113
*1368 FILLER_39_125
*1369 FILLER_39_137
*1370 FILLER_39_149
*1371 FILLER_39_15
*1372 FILLER_39_161
*1373 FILLER_39_167
*1374 FILLER_39_169
*1375 FILLER_39_181
*1376 FILLER_39_193
*1377 FILLER_39_205
*1378 FILLER_39_217
*1379 FILLER_39_223
*1380 FILLER_39_225
*1381 FILLER_39_237
*1382 FILLER_39_249
*1383 FILLER_39_261
*1384 FILLER_39_27
*1385 FILLER_39_273
*1386 FILLER_39_279
*1387 FILLER_39_281
*1388 FILLER_39_293
*1389 FILLER_39_3
*1390 FILLER_39_305
*1391 FILLER_39_317
*1392 FILLER_39_329
*1393 FILLER_39_335
*1394 FILLER_39_337
*1395 FILLER_39_349
*1396 FILLER_39_361
*1397 FILLER_39_367
*1398 FILLER_39_39
*1399 FILLER_39_51
*1400 FILLER_39_55
*1401 FILLER_39_57
*1402 FILLER_39_69
*1403 FILLER_39_81
*1404 FILLER_39_93
*1405 FILLER_3_100
*1406 FILLER_3_108
*1407 FILLER_3_113
*1408 FILLER_3_125
*1409 FILLER_3_137
*1410 FILLER_3_149
*1411 FILLER_3_15
*1412 FILLER_3_161
*1413 FILLER_3_167
*1414 FILLER_3_169
*1415 FILLER_3_181
*1416 FILLER_3_193
*1417 FILLER_3_205
*1418 FILLER_3_217
*1419 FILLER_3_223
*1420 FILLER_3_225
*1421 FILLER_3_237
*1422 FILLER_3_249
*1423 FILLER_3_261
*1424 FILLER_3_27
*1425 FILLER_3_273
*1426 FILLER_3_279
*1427 FILLER_3_281
*1428 FILLER_3_293
*1429 FILLER_3_3
*1430 FILLER_3_305
*1431 FILLER_3_317
*1432 FILLER_3_329
*1433 FILLER_3_335
*1434 FILLER_3_337
*1435 FILLER_3_34
*1436 FILLER_3_349
*1437 FILLER_3_361
*1438 FILLER_3_367
*1439 FILLER_3_54
*1440 FILLER_3_57
*1441 FILLER_3_79
*1442 FILLER_3_92
*1443 FILLER_40_109
*1444 FILLER_40_121
*1445 FILLER_40_133
*1446 FILLER_40_139
*1447 FILLER_40_141
*1448 FILLER_40_15
*1449 FILLER_40_153
*1450 FILLER_40_165
*1451 FILLER_40_177
*1452 FILLER_40_189
*1453 FILLER_40_195
*1454 FILLER_40_197
*1455 FILLER_40_209
*1456 FILLER_40_221
*1457 FILLER_40_233
*1458 FILLER_40_245
*1459 FILLER_40_251
*1460 FILLER_40_253
*1461 FILLER_40_265
*1462 FILLER_40_27
*1463 FILLER_40_277
*1464 FILLER_40_289
*1465 FILLER_40_29
*1466 FILLER_40_3
*1467 FILLER_40_301
*1468 FILLER_40_307
*1469 FILLER_40_309
*1470 FILLER_40_321
*1471 FILLER_40_333
*1472 FILLER_40_345
*1473 FILLER_40_357
*1474 FILLER_40_363
*1475 FILLER_40_365
*1476 FILLER_40_41
*1477 FILLER_40_53
*1478 FILLER_40_65
*1479 FILLER_40_77
*1480 FILLER_40_83
*1481 FILLER_40_85
*1482 FILLER_40_97
*1483 FILLER_41_105
*1484 FILLER_41_111
*1485 FILLER_41_113
*1486 FILLER_41_125
*1487 FILLER_41_137
*1488 FILLER_41_149
*1489 FILLER_41_15
*1490 FILLER_41_161
*1491 FILLER_41_167
*1492 FILLER_41_169
*1493 FILLER_41_181
*1494 FILLER_41_193
*1495 FILLER_41_205
*1496 FILLER_41_217
*1497 FILLER_41_223
*1498 FILLER_41_225
*1499 FILLER_41_237
*1500 FILLER_41_249
*1501 FILLER_41_261
*1502 FILLER_41_27
*1503 FILLER_41_273
*1504 FILLER_41_279
*1505 FILLER_41_281
*1506 FILLER_41_293
*1507 FILLER_41_3
*1508 FILLER_41_305
*1509 FILLER_41_317
*1510 FILLER_41_329
*1511 FILLER_41_335
*1512 FILLER_41_337
*1513 FILLER_41_349
*1514 FILLER_41_361
*1515 FILLER_41_367
*1516 FILLER_41_39
*1517 FILLER_41_51
*1518 FILLER_41_55
*1519 FILLER_41_57
*1520 FILLER_41_69
*1521 FILLER_41_81
*1522 FILLER_41_93
*1523 FILLER_42_109
*1524 FILLER_42_121
*1525 FILLER_42_133
*1526 FILLER_42_139
*1527 FILLER_42_141
*1528 FILLER_42_15
*1529 FILLER_42_153
*1530 FILLER_42_165
*1531 FILLER_42_177
*1532 FILLER_42_189
*1533 FILLER_42_195
*1534 FILLER_42_197
*1535 FILLER_42_209
*1536 FILLER_42_221
*1537 FILLER_42_233
*1538 FILLER_42_245
*1539 FILLER_42_251
*1540 FILLER_42_253
*1541 FILLER_42_265
*1542 FILLER_42_27
*1543 FILLER_42_277
*1544 FILLER_42_289
*1545 FILLER_42_29
*1546 FILLER_42_3
*1547 FILLER_42_301
*1548 FILLER_42_307
*1549 FILLER_42_309
*1550 FILLER_42_321
*1551 FILLER_42_333
*1552 FILLER_42_345
*1553 FILLER_42_357
*1554 FILLER_42_363
*1555 FILLER_42_365
*1556 FILLER_42_41
*1557 FILLER_42_53
*1558 FILLER_42_65
*1559 FILLER_42_77
*1560 FILLER_42_83
*1561 FILLER_42_85
*1562 FILLER_42_97
*1563 FILLER_43_105
*1564 FILLER_43_111
*1565 FILLER_43_113
*1566 FILLER_43_125
*1567 FILLER_43_137
*1568 FILLER_43_149
*1569 FILLER_43_15
*1570 FILLER_43_161
*1571 FILLER_43_167
*1572 FILLER_43_169
*1573 FILLER_43_181
*1574 FILLER_43_193
*1575 FILLER_43_205
*1576 FILLER_43_217
*1577 FILLER_43_223
*1578 FILLER_43_225
*1579 FILLER_43_237
*1580 FILLER_43_249
*1581 FILLER_43_261
*1582 FILLER_43_27
*1583 FILLER_43_273
*1584 FILLER_43_279
*1585 FILLER_43_281
*1586 FILLER_43_293
*1587 FILLER_43_3
*1588 FILLER_43_305
*1589 FILLER_43_317
*1590 FILLER_43_329
*1591 FILLER_43_335
*1592 FILLER_43_337
*1593 FILLER_43_349
*1594 FILLER_43_361
*1595 FILLER_43_367
*1596 FILLER_43_39
*1597 FILLER_43_51
*1598 FILLER_43_55
*1599 FILLER_43_57
*1600 FILLER_43_69
*1601 FILLER_43_81
*1602 FILLER_43_93
*1603 FILLER_44_109
*1604 FILLER_44_121