*SPEF "ieee 1481-1999"
*DESIGN "R4_butter"
*DATE "11:11:11 Fri 11 11, 1111"
*VENDOR "OpenRCX"
*PROGRAM "Parallel Extraction"
*VERSION "1.0"
*DESIGN_FLOW "NAME_SCOPE LOCAL" "PIN_CAP NONE"
*DIVIDER /
*DELIMITER :
*BUS_DELIMITER []
*T_UNIT 1 NS
*C_UNIT 1 PF
*R_UNIT 1 OHM
*L_UNIT 1 HENRY

*NAME_MAP
*1 Xio[0]
*2 net19
*3 net20
*4 net21
*5 Xro[0]
*6 net16
*7 net17
*8 net18
*9 c1
*10 c2
*11 c3
*12 net12
*13 net13
*14 net14
*15 net15
*18 xi0[0]
*19 xi0[1]
*20 xi0[2]
*21 xi0[3]
*22 xi1[0]
*23 xi1[1]
*24 xi1[2]
*25 xi1[3]
*26 xi2[0]
*27 xi2[1]
*28 xi2[2]
*29 xi2[3]
*30 xi3[0]
*31 xi3[1]
*32 xi3[2]
*33 xi3[3]
*34 xr0[0]
*35 xr0[1]
*36 xr0[2]
*37 xr0[3]
*38 xr1[0]
*39 xr1[1]
*40 xr1[2]
*41 xr1[3]
*42 xr2[0]
*43 xr2[1]
*44 xr2[2]
*45 xr2[3]
*46 xr3[0]
*47 xr3[1]
*48 xr3[2]
*49 xr3[3]
*50 _00_
*51 _01_
*52 _02_
*53 _03_
*54 _04_
*55 _05_
*56 net1
*57 net10
*58 net11
*59 net2
*60 net3
*61 net4
*62 net5
*63 net6
*64 net7
*65 net8
*66 net9
*67 FILLER_0_109
*68 FILLER_0_113
*69 FILLER_0_125
*70 FILLER_0_137
*71 FILLER_0_141
*72 FILLER_0_146
*73 FILLER_0_15
*74 FILLER_0_158
*75 FILLER_0_166
*76 FILLER_0_169
*77 FILLER_0_181
*78 FILLER_0_193
*79 FILLER_0_197
*80 FILLER_0_209
*81 FILLER_0_221
*82 FILLER_0_225
*83 FILLER_0_233
*84 FILLER_0_239
*85 FILLER_0_251
*86 FILLER_0_253
*87 FILLER_0_265
*88 FILLER_0_27
*89 FILLER_0_277
*90 FILLER_0_281
*91 FILLER_0_29
*92 FILLER_0_293
*93 FILLER_0_3
*94 FILLER_0_305
*95 FILLER_0_309
*96 FILLER_0_321
*97 FILLER_0_333
*98 FILLER_0_337
*99 FILLER_0_342
*100 FILLER_0_350
*101 FILLER_0_355
*102 FILLER_0_362
*103 FILLER_0_365
*104 FILLER_0_37
*105 FILLER_0_41
*106 FILLER_0_53
*107 FILLER_0_57
*108 FILLER_0_69
*109 FILLER_0_81
*110 FILLER_0_85
*111 FILLER_0_97
*112 FILLER_10_109
*113 FILLER_10_121
*114 FILLER_10_133
*115 FILLER_10_139
*116 FILLER_10_141
*117 FILLER_10_15
*118 FILLER_10_153
*119 FILLER_10_165
*120 FILLER_10_177
*121 FILLER_10_189
*122 FILLER_10_195
*123 FILLER_10_197
*124 FILLER_10_209
*125 FILLER_10_221
*126 FILLER_10_233
*127 FILLER_10_245
*128 FILLER_10_251
*129 FILLER_10_253
*130 FILLER_10_265
*131 FILLER_10_27
*132 FILLER_10_277
*133 FILLER_10_289
*134 FILLER_10_29
*135 FILLER_10_3
*136 FILLER_10_301
*137 FILLER_10_307
*138 FILLER_10_309
*139 FILLER_10_321
*140 FILLER_10_333
*141 FILLER_10_345
*142 FILLER_10_357
*143 FILLER_10_362
*144 FILLER_10_365
*145 FILLER_10_41
*146 FILLER_10_53
*147 FILLER_10_65
*148 FILLER_10_77
*149 FILLER_10_83
*150 FILLER_10_85
*151 FILLER_10_97
*152 FILLER_11_105
*153 FILLER_11_111
*154 FILLER_11_113
*155 FILLER_11_125
*156 FILLER_11_137
*157 FILLER_11_149
*158 FILLER_11_15
*159 FILLER_11_161
*160 FILLER_11_167
*161 FILLER_11_169
*162 FILLER_11_181
*163 FILLER_11_193
*164 FILLER_11_205
*165 FILLER_11_217
*166 FILLER_11_223
*167 FILLER_11_225
*168 FILLER_11_237
*169 FILLER_11_249
*170 FILLER_11_261
*171 FILLER_11_27
*172 FILLER_11_273
*173 FILLER_11_279
*174 FILLER_11_281
*175 FILLER_11_293
*176 FILLER_11_3
*177 FILLER_11_305
*178 FILLER_11_317
*179 FILLER_11_329
*180 FILLER_11_335
*181 FILLER_11_337
*182 FILLER_11_349
*183 FILLER_11_361
*184 FILLER_11_366
*185 FILLER_11_39
*186 FILLER_11_51
*187 FILLER_11_55
*188 FILLER_11_57
*189 FILLER_11_69
*190 FILLER_11_81
*191 FILLER_11_93
*192 FILLER_12_109
*193 FILLER_12_121
*194 FILLER_12_133
*195 FILLER_12_139
*196 FILLER_12_141
*197 FILLER_12_15
*198 FILLER_12_153
*199 FILLER_12_165
*200 FILLER_12_177
*201 FILLER_12_189
*202 FILLER_12_195
*203 FILLER_12_197
*204 FILLER_12_209
*205 FILLER_12_221
*206 FILLER_12_233
*207 FILLER_12_245
*208 FILLER_12_251
*209 FILLER_12_253
*210 FILLER_12_265
*211 FILLER_12_27
*212 FILLER_12_277
*213 FILLER_12_289
*214 FILLER_12_29
*215 FILLER_12_3
*216 FILLER_12_301
*217 FILLER_12_307
*218 FILLER_12_309
*219 FILLER_12_321
*220 FILLER_12_333
*221 FILLER_12_345
*222 FILLER_12_357
*223 FILLER_12_363
*224 FILLER_12_365
*225 FILLER_12_41
*226 FILLER_12_53
*227 FILLER_12_65
*228 FILLER_12_77
*229 FILLER_12_83
*230 FILLER_12_85
*231 FILLER_12_97
*232 FILLER_13_105
*233 FILLER_13_111
*234 FILLER_13_113
*235 FILLER_13_125
*236 FILLER_13_137
*237 FILLER_13_149
*238 FILLER_13_15
*239 FILLER_13_161
*240 FILLER_13_167
*241 FILLER_13_169
*242 FILLER_13_181
*243 FILLER_13_193
*244 FILLER_13_205
*245 FILLER_13_217
*246 FILLER_13_223
*247 FILLER_13_225
*248 FILLER_13_237
*249 FILLER_13_249
*250 FILLER_13_261
*251 FILLER_13_27
*252 FILLER_13_273
*253 FILLER_13_279
*254 FILLER_13_281
*255 FILLER_13_293
*256 FILLER_13_3
*257 FILLER_13_305
*258 FILLER_13_317
*259 FILLER_13_329
*260 FILLER_13_335
*261 FILLER_13_337
*262 FILLER_13_349
*263 FILLER_13_361
*264 FILLER_13_366
*265 FILLER_13_39
*266 FILLER_13_51
*267 FILLER_13_55
*268 FILLER_13_57
*269 FILLER_13_69
*270 FILLER_13_81
*271 FILLER_13_93
*272 FILLER_14_109
*273 FILLER_14_121
*274 FILLER_14_133
*275 FILLER_14_139
*276 FILLER_14_141
*277 FILLER_14_15
*278 FILLER_14_153
*279 FILLER_14_165
*280 FILLER_14_177
*281 FILLER_14_189
*282 FILLER_14_195
*283 FILLER_14_197
*284 FILLER_14_209
*285 FILLER_14_221
*286 FILLER_14_233
*287 FILLER_14_245
*288 FILLER_14_251
*289 FILLER_14_253
*290 FILLER_14_265
*291 FILLER_14_27
*292 FILLER_14_277
*293 FILLER_14_289
*294 FILLER_14_29
*295 FILLER_14_3
*296 FILLER_14_301
*297 FILLER_14_307
*298 FILLER_14_309
*299 FILLER_14_321
*300 FILLER_14_333
*301 FILLER_14_345
*302 FILLER_14_357
*303 FILLER_14_363
*304 FILLER_14_365
*305 FILLER_14_41
*306 FILLER_14_53
*307 FILLER_14_65
*308 FILLER_14_77
*309 FILLER_14_83
*310 FILLER_14_85
*311 FILLER_14_97
*312 FILLER_15_105
*313 FILLER_15_111
*314 FILLER_15_113
*315 FILLER_15_125
*316 FILLER_15_137
*317 FILLER_15_149
*318 FILLER_15_15
*319 FILLER_15_161
*320 FILLER_15_167
*321 FILLER_15_169
*322 FILLER_15_181
*323 FILLER_15_193
*324 FILLER_15_205
*325 FILLER_15_217
*326 FILLER_15_223
*327 FILLER_15_225
*328 FILLER_15_237
*329 FILLER_15_249
*330 FILLER_15_261
*331 FILLER_15_27
*332 FILLER_15_273
*333 FILLER_15_279
*334 FILLER_15_281
*335 FILLER_15_293
*336 FILLER_15_3
*337 FILLER_15_305
*338 FILLER_15_317
*339 FILLER_15_329
*340 FILLER_15_335
*341 FILLER_15_337
*342 FILLER_15_349
*343 FILLER_15_361
*344 FILLER_15_367
*345 FILLER_15_39
*346 FILLER_15_51
*347 FILLER_15_55
*348 FILLER_15_57
*349 FILLER_15_69
*350 FILLER_15_81
*351 FILLER_15_93
*352 FILLER_16_109
*353 FILLER_16_121
*354 FILLER_16_133
*355 FILLER_16_139
*356 FILLER_16_141
*357 FILLER_16_15
*358 FILLER_16_153
*359 FILLER_16_165
*360 FILLER_16_177
*361 FILLER_16_189
*362 FILLER_16_195
*363 FILLER_16_197
*364 FILLER_16_209
*365 FILLER_16_221
*366 FILLER_16_233
*367 FILLER_16_245
*368 FILLER_16_251
*369 FILLER_16_253
*370 FILLER_16_265
*371 FILLER_16_27
*372 FILLER_16_277
*373 FILLER_16_289
*374 FILLER_16_29
*375 FILLER_16_3
*376 FILLER_16_301
*377 FILLER_16_307
*378 FILLER_16_309
*379 FILLER_16_321
*380 FILLER_16_333
*381 FILLER_16_345
*382 FILLER_16_357
*383 FILLER_16_363
*384 FILLER_16_365
*385 FILLER_16_41
*386 FILLER_16_53
*387 FILLER_16_65
*388 FILLER_16_77
*389 FILLER_16_83
*390 FILLER_16_85
*391 FILLER_16_97
*392 FILLER_17_105
*393 FILLER_17_111
*394 FILLER_17_113
*395 FILLER_17_125
*396 FILLER_17_137
*397 FILLER_17_149
*398 FILLER_17_15
*399 FILLER_17_161
*400 FILLER_17_167
*401 FILLER_17_169
*402 FILLER_17_181
*403 FILLER_17_193
*404 FILLER_17_205
*405 FILLER_17_217
*406 FILLER_17_223
*407 FILLER_17_225
*408 FILLER_17_237
*409 FILLER_17_249
*410 FILLER_17_261
*411 FILLER_17_27
*412 FILLER_17_273
*413 FILLER_17_279
*414 FILLER_17_281
*415 FILLER_17_293
*416 FILLER_17_3
*417 FILLER_17_305
*418 FILLER_17_317
*419 FILLER_17_329
*420 FILLER_17_335
*421 FILLER_17_337
*422 FILLER_17_349
*423 FILLER_17_361
*424 FILLER_17_367
*425 FILLER_17_39
*426 FILLER_17_51
*427 FILLER_17_55
*428 FILLER_17_57
*429 FILLER_17_69
*430 FILLER_17_81
*431 FILLER_17_93
*432 FILLER_18_109
*433 FILLER_18_121
*434 FILLER_18_133
*435 FILLER_18_139
*436 FILLER_18_141
*437 FILLER_18_15
*438 FILLER_18_153
*439 FILLER_18_165
*440 FILLER_18_177
*441 FILLER_18_189
*442 FILLER_18_195
*443 FILLER_18_197
*444 FILLER_18_209
*445 FILLER_18_221
*446 FILLER_18_233
*447 FILLER_18_245
*448 FILLER_18_251
*449 FILLER_18_253
*450 FILLER_18_265
*451 FILLER_18_27
*452 FILLER_18_277
*453 FILLER_18_289
*454 FILLER_18_29
*455 FILLER_18_3
*456 FILLER_18_301
*457 FILLER_18_307
*458 FILLER_18_309
*459 FILLER_18_321
*460 FILLER_18_333
*461 FILLER_18_345
*462 FILLER_18_357
*463 FILLER_18_363
*464 FILLER_18_365
*465 FILLER_18_41
*466 FILLER_18_53
*467 FILLER_18_65
*468 FILLER_18_77
*469 FILLER_18_83
*470 FILLER_18_85
*471 FILLER_18_97
*472 FILLER_19_105
*473 FILLER_19_111
*474 FILLER_19_113
*475 FILLER_19_125
*476 FILLER_19_137
*477 FILLER_19_149
*478 FILLER_19_15
*479 FILLER_19_161
*480 FILLER_19_167
*481 FILLER_19_169
*482 FILLER_19_181
*483 FILLER_19_193
*484 FILLER_19_205
*485 FILLER_19_217
*486 FILLER_19_223
*487 FILLER_19_225
*488 FILLER_19_237
*489 FILLER_19_249
*490 FILLER_19_261
*491 FILLER_19_27
*492 FILLER_19_273
*493 FILLER_19_279
*494 FILLER_19_281
*495 FILLER_19_293
*496 FILLER_19_3
*497 FILLER_19_305
*498 FILLER_19_317
*499 FILLER_19_329
*500 FILLER_19_335
*501 FILLER_19_337
*502 FILLER_19_349
*503 FILLER_19_361
*504 FILLER_19_367
*505 FILLER_19_39
*506 FILLER_19_51
*507 FILLER_19_55
*508 FILLER_19_57
*509 FILLER_19_69
*510 FILLER_19_81
*511 FILLER_19_93
*512 FILLER_1_105
*513 FILLER_1_111
*514 FILLER_1_113
*515 FILLER_1_125
*516 FILLER_1_137
*517 FILLER_1_149
*518 FILLER_1_15
*519 FILLER_1_161
*520 FILLER_1_167
*521 FILLER_1_169
*522 FILLER_1_181
*523 FILLER_1_193
*524 FILLER_1_205
*525 FILLER_1_217
*526 FILLER_1_223
*527 FILLER_1_225
*528 FILLER_1_237
*529 FILLER_1_249
*530 FILLER_1_261
*531 FILLER_1_27
*532 FILLER_1_273
*533 FILLER_1_279
*534 FILLER_1_281
*535 FILLER_1_293
*536 FILLER_1_3
*537 FILLER_1_305
*538 FILLER_1_317
*539 FILLER_1_329
*540 FILLER_1_335
*541 FILLER_1_337
*542 FILLER_1_349
*543 FILLER_1_354
*544 FILLER_1_366
*545 FILLER_1_39
*546 FILLER_1_51
*547 FILLER_1_55
*548 FILLER_1_57
*549 FILLER_1_69
*550 FILLER_1_81
*551 FILLER_1_93
*552 FILLER_20_109
*553 FILLER_20_121
*554 FILLER_20_133
*555 FILLER_20_139
*556 FILLER_20_141
*557 FILLER_20_15
*558 FILLER_20_153
*559 FILLER_20_165
*560 FILLER_20_177
*561 FILLER_20_189
*562 FILLER_20_195
*563 FILLER_20_197
*564 FILLER_20_209
*565 FILLER_20_221
*566 FILLER_20_233
*567 FILLER_20_245
*568 FILLER_20_251
*569 FILLER_20_253
*570 FILLER_20_265
*571 FILLER_20_27
*572 FILLER_20_277
*573 FILLER_20_289
*574 FILLER_20_29
*575 FILLER_20_3
*576 FILLER_20_301
*577 FILLER_20_307
*578 FILLER_20_309
*579 FILLER_20_321
*580 FILLER_20_333
*581 FILLER_20_345
*582 FILLER_20_357
*583 FILLER_20_363
*584 FILLER_20_365
*585 FILLER_20_41
*586 FILLER_20_53
*587 FILLER_20_65
*588 FILLER_20_77
*589 FILLER_20_83
*590 FILLER_20_85
*591 FILLER_20_97
*592 FILLER_21_105
*593 FILLER_21_111
*594 FILLER_21_113
*595 FILLER_21_125
*596 FILLER_21_137
*597 FILLER_21_149
*598 FILLER_21_15
*599 FILLER_21_161
*600 FILLER_21_167
*601 FILLER_21_169
*602 FILLER_21_181
*603 FILLER_21_193
*604 FILLER_21_205
*605 FILLER_21_217
*606 FILLER_21_223
*607 FILLER_21_225
*608 FILLER_21_237
*609 FILLER_21_249
*610 FILLER_21_261
*611 FILLER_21_27
*612 FILLER_21_273
*613 FILLER_21_279
*614 FILLER_21_281
*615 FILLER_21_293
*616 FILLER_21_3
*617 FILLER_21_305
*618 FILLER_21_317
*619 FILLER_21_329
*620 FILLER_21_335
*621 FILLER_21_337
*622 FILLER_21_349
*623 FILLER_21_361
*624 FILLER_21_367
*625 FILLER_21_39
*626 FILLER_21_51
*627 FILLER_21_55
*628 FILLER_21_57
*629 FILLER_21_69
*630 FILLER_21_81
*631 FILLER_21_93
*632 FILLER_22_109
*633 FILLER_22_121
*634 FILLER_22_133
*635 FILLER_22_139
*636 FILLER_22_141
*637 FILLER_22_15
*638 FILLER_22_153
*639 FILLER_22_165
*640 FILLER_22_177
*641 FILLER_22_189
*642 FILLER_22_195
*643 FILLER_22_197
*644 FILLER_22_209
*645 FILLER_22_221
*646 FILLER_22_233
*647 FILLER_22_245
*648 FILLER_22_251
*649 FILLER_22_253
*650 FILLER_22_265
*651 FILLER_22_27
*652 FILLER_22_277
*653 FILLER_22_289
*654 FILLER_22_29
*655 FILLER_22_3
*656 FILLER_22_301
*657 FILLER_22_307
*658 FILLER_22_309
*659 FILLER_22_321
*660 FILLER_22_333
*661 FILLER_22_345
*662 FILLER_22_357
*663 FILLER_22_363
*664 FILLER_22_365
*665 FILLER_22_41
*666 FILLER_22_53
*667 FILLER_22_65
*668 FILLER_22_77
*669 FILLER_22_83
*670 FILLER_22_85
*671 FILLER_22_97
*672 FILLER_23_105
*673 FILLER_23_111
*674 FILLER_23_113
*675 FILLER_23_125
*676 FILLER_23_137
*677 FILLER_23_149
*678 FILLER_23_15
*679 FILLER_23_161
*680 FILLER_23_167
*681 FILLER_23_169
*682 FILLER_23_181
*683 FILLER_23_193
*684 FILLER_23_205
*685 FILLER_23_217
*686 FILLER_23_223
*687 FILLER_23_225
*688 FILLER_23_237
*689 FILLER_23_249
*690 FILLER_23_261
*691 FILLER_23_27
*692 FILLER_23_273
*693 FILLER_23_279
*694 FILLER_23_281
*695 FILLER_23_293
*696 FILLER_23_3
*697 FILLER_23_305
*698 FILLER_23_317
*699 FILLER_23_329
*700 FILLER_23_335
*701 FILLER_23_337
*702 FILLER_23_349
*703 FILLER_23_361
*704 FILLER_23_367
*705 FILLER_23_39
*706 FILLER_23_51
*707 FILLER_23_55
*708 FILLER_23_57
*709 FILLER_23_69
*710 FILLER_23_81
*711 FILLER_23_93
*712 FILLER_24_109
*713 FILLER_24_121
*714 FILLER_24_133
*715 FILLER_24_139
*716 FILLER_24_141
*717 FILLER_24_15
*718 FILLER_24_153
*719 FILLER_24_165
*720 FILLER_24_177
*721 FILLER_24_189
*722 FILLER_24_195
*723 FILLER_24_197
*724 FILLER_24_209
*725 FILLER_24_221
*726 FILLER_24_233
*727 FILLER_24_245
*728 FILLER_24_251
*729 FILLER_24_253
*730 FILLER_24_265
*731 FILLER_24_27
*732 FILLER_24_277
*733 FILLER_24_289
*734 FILLER_24_29
*735 FILLER_24_3
*736 FILLER_24_301
*737 FILLER_24_307
*738 FILLER_24_309
*739 FILLER_24_321
*740 FILLER_24_333
*741 FILLER_24_345
*742 FILLER_24_357
*743 FILLER_24_363
*744 FILLER_24_365
*745 FILLER_24_41
*746 FILLER_24_53
*747 FILLER_24_65
*748 FILLER_24_77
*749 FILLER_24_83
*750 FILLER_24_85
*751 FILLER_24_97
*752 FILLER_25_105
*753 FILLER_25_111
*754 FILLER_25_113
*755 FILLER_25_125
*756 FILLER_25_137
*757 FILLER_25_149
*758 FILLER_25_15
*759 FILLER_25_161
*760 FILLER_25_167
*761 FILLER_25_169
*762 FILLER_25_181
*763 FILLER_25_193
*764 FILLER_25_205
*765 FILLER_25_217
*766 FILLER_25_223
*767 FILLER_25_225
*768 FILLER_25_237
*769 FILLER_25_249
*770 FILLER_25_261
*771 FILLER_25_27
*772 FILLER_25_273
*773 FILLER_25_279
*774 FILLER_25_281
*775 FILLER_25_293
*776 FILLER_25_3
*777 FILLER_25_305
*778 FILLER_25_317
*779 FILLER_25_329
*780 FILLER_25_335
*781 FILLER_25_337
*782 FILLER_25_349
*783 FILLER_25_361
*784 FILLER_25_367
*785 FILLER_25_39
*786 FILLER_25_51
*787 FILLER_25_55
*788 FILLER_25_57
*789 FILLER_25_69
*790 FILLER_25_81
*791 FILLER_25_93
*792 FILLER_26_109
*793 FILLER_26_121
*794 FILLER_26_133
*795 FILLER_26_139
*796 FILLER_26_141
*797 FILLER_26_15
*798 FILLER_26_153
*799 FILLER_26_165
*800 FILLER_26_177
*801 FILLER_26_189
*802 FILLER_26_195
*803 FILLER_26_197
*804 FILLER_26_209
*805 FILLER_26_221
*806 FILLER_26_233
*807 FILLER_26_245
*808 FILLER_26_251
*809 FILLER_26_253
*810 FILLER_26_265
*811 FILLER_26_27
*812 FILLER_26_277
*813 FILLER_26_289
*814 FILLER_26_29
*815 FILLER_26_3
*816 FILLER_26_301
*817 FILLER_26_307
*818 FILLER_26_309
*819 FILLER_26_321
*820 FILLER_26_333
*821 FILLER_26_345
*822 FILLER_26_357
*823 FILLER_26_363
*824 FILLER_26_365
*825 FILLER_26_41
*826 FILLER_26_53
*827 FILLER_26_65
*828 FILLER_26_77
*829 FILLER_26_83
*830 FILLER_26_85
*831 FILLER_26_97
*832 FILLER_27_105
*833 FILLER_27_111
*834 FILLER_27_113
*835 FILLER_27_125
*836 FILLER_27_137
*837 FILLER_27_149
*838 FILLER_27_15
*839 FILLER_27_161
*840 FILLER_27_167
*841 FILLER_27_169
*842 FILLER_27_181
*843 FILLER_27_193
*844 FILLER_27_205
*845 FILLER_27_217
*846 FILLER_27_223
*847 FILLER_27_225
*848 FILLER_27_237
*849 FILLER_27_249
*850 FILLER_27_261
*851 FILLER_27_27
*852 FILLER_27_273
*853 FILLER_27_279
*854 FILLER_27_281
*855 FILLER_27_293
*856 FILLER_27_3
*857 FILLER_27_305
*858 FILLER_27_317
*859 FILLER_27_329
*860 FILLER_27_335
*861 FILLER_27_337
*862 FILLER_27_349
*863 FILLER_27_361
*864 FILLER_27_367
*865 FILLER_27_39
*866 FILLER_27_51
*867 FILLER_27_55
*868 FILLER_27_57
*869 FILLER_27_69
*870 FILLER_27_81
*871 FILLER_27_93
*872 FILLER_28_109
*873 FILLER_28_121
*874 FILLER_28_133
*875 FILLER_28_139
*876 FILLER_28_141
*877 FILLER_28_15
*878 FILLER_28_153
*879 FILLER_28_165
*880 FILLER_28_177
*881 FILLER_28_189
*882 FILLER_28_195
*883 FILLER_28_197
*884 FILLER_28_209
*885 FILLER_28_221
*886 FILLER_28_233
*887 FILLER_28_245
*888 FILLER_28_251
*889 FILLER_28_253
*890 FILLER_28_265
*891 FILLER_28_27
*892 FILLER_28_277
*893 FILLER_28_289
*894 FILLER_28_29
*895 FILLER_28_3
*896 FILLER_28_301
*897 FILLER_28_307
*898 FILLER_28_309
*899 FILLER_28_321
*900 FILLER_28_333
*901 FILLER_28_345
*902 FILLER_28_357
*903 FILLER_28_363
*904 FILLER_28_365
*905 FILLER_28_41
*906 FILLER_28_53
*907 FILLER_28_65
*908 FILLER_28_77
*909 FILLER_28_83
*910 FILLER_28_85
*911 FILLER_28_97
*912 FILLER_29_105
*913 FILLER_29_111
*914 FILLER_29_113
*915 FILLER_29_125
*916 FILLER_29_137
*917 FILLER_29_149
*918 FILLER_29_15
*919 FILLER_29_161
*920 FILLER_29_167
*921 FILLER_29_169
*922 FILLER_29_181
*923 FILLER_29_193
*924 FILLER_29_205
*925 FILLER_29_217
*926 FILLER_29_223
*927 FILLER_29_225
*928 FILLER_29_237
*929 FILLER_29_249
*930 FILLER_29_261
*931 FILLER_29_27
*932 FILLER_29_273
*933 FILLER_29_279
*934 FILLER_29_281
*935 FILLER_29_293
*936 FILLER_29_3
*937 FILLER_29_305
*938 FILLER_29_317
*939 FILLER_29_329
*940 FILLER_29_335
*941 FILLER_29_337
*942 FILLER_29_349
*943 FILLER_29_361
*944 FILLER_29_366
*945 FILLER_29_39
*946 FILLER_29_51
*947 FILLER_29_55
*948 FILLER_29_57
*949 FILLER_29_69
*950 FILLER_29_81
*951 FILLER_29_93
*952 FILLER_2_109
*953 FILLER_2_121
*954 FILLER_2_133
*955 FILLER_2_139
*956 FILLER_2_141
*957 FILLER_2_15
*958 FILLER_2_153
*959 FILLER_2_165
*960 FILLER_2_177
*961 FILLER_2_189
*962 FILLER_2_195
*963 FILLER_2_197
*964 FILLER_2_209
*965 FILLER_2_221
*966 FILLER_2_233
*967 FILLER_2_245
*968 FILLER_2_251
*969 FILLER_2_253
*970 FILLER_2_265
*971 FILLER_2_27
*972 FILLER_2_277
*973 FILLER_2_289
*974 FILLER_2_29
*975 FILLER_2_3
*976 FILLER_2_301
*977 FILLER_2_307
*978 FILLER_2_309
*979 FILLER_2_321
*980 FILLER_2_333
*981 FILLER_2_345
*982 FILLER_2_353
*983 FILLER_2_362
*984 FILLER_2_365
*985 FILLER_2_41
*986 FILLER_2_53
*987 FILLER_2_65
*988 FILLER_2_77
*989 FILLER_2_83
*990 FILLER_2_85
*991 FILLER_2_97
*992 FILLER_30_109
*993 FILLER_30_121
*994 FILLER_30_133
*995 FILLER_30_139
*996 FILLER_30_141
*997 FILLER_30_15
*998 FILLER_30_153
*999 FILLER_30_165
*1000 FILLER_30_177
*1001 FILLER_30_189
*1002 FILLER_30_195
*1003 FILLER_30_197
*1004 FILLER_30_209
*1005 FILLER_30_221
*1006 FILLER_30_233
*1007 FILLER_30_245
*1008 FILLER_30_251
*1009 FILLER_30_253
*1010 FILLER_30_265
*1011 FILLER_30_27
*1012 FILLER_30_277
*1013 FILLER_30_289
*1014 FILLER_30_29
*1015 FILLER_30_3
*1016 FILLER_30_301
*1017 FILLER_30_307
*1018 FILLER_30_309
*1019 FILLER_30_321
*1020 FILLER_30_333
*1021 FILLER_30_345
*1022 FILLER_30_357
*1023 FILLER_30_363
*1024 FILLER_30_365
*1025 FILLER_30_41
*1026 FILLER_30_53
*1027 FILLER_30_65
*1028 FILLER_30_77
*1029 FILLER_30_83
*1030 FILLER_30_85
*1031 FILLER_30_97
*1032 FILLER_31_105
*1033 FILLER_31_111
*1034 FILLER_31_113
*1035 FILLER_31_125
*1036 FILLER_31_137
*1037 FILLER_31_149
*1038 FILLER_31_15
*1039 FILLER_31_161
*1040 FILLER_31_167
*1041 FILLER_31_169
*1042 FILLER_31_181
*1043 FILLER_31_193
*1044 FILLER_31_205
*1045 FILLER_31_217
*1046 FILLER_31_223
*1047 FILLER_31_225
*1048 FILLER_31_237
*1049 FILLER_31_249
*1050 FILLER_31_261
*1051 FILLER_31_27
*1052 FILLER_31_273
*1053 FILLER_31_279
*1054 FILLER_31_281
*1055 FILLER_31_293
*1056 FILLER_31_3
*1057 FILLER_31_305
*1058 FILLER_31_317
*1059 FILLER_31_329
*1060 FILLER_31_335
*1061 FILLER_31_337
*1062 FILLER_31_349
*1063 FILLER_31_361
*1064 FILLER_31_366
*1065 FILLER_31_39
*1066 FILLER_31_51
*1067 FILLER_31_55
*1068 FILLER_31_57
*1069 FILLER_31_69
*1070 FILLER_31_81
*1071 FILLER_31_93
*1072 FILLER_32_109
*1073 FILLER_32_121
*1074 FILLER_32_133
*1075 FILLER_32_139
*1076 FILLER_32_141
*1077 FILLER_32_15
*1078 FILLER_32_153
*1079 FILLER_32_165
*1080 FILLER_32_177
*1081 FILLER_32_189
*1082 FILLER_32_195
*1083 FILLER_32_197
*1084 FILLER_32_209
*1085 FILLER_32_221
*1086 FILLER_32_233
*1087 FILLER_32_245
*1088 FILLER_32_251
*1089 FILLER_32_253
*1090 FILLER_32_265
*1091 FILLER_32_27
*1092 FILLER_32_277
*1093 FILLER_32_289
*1094 FILLER_32_29
*1095 FILLER_32_3
*1096 FILLER_32_301
*1097 FILLER_32_307
*1098 FILLER_32_309
*1099 FILLER_32_321
*1100 FILLER_32_333
*1101 FILLER_32_345
*1102 FILLER_32_357
*1103 FILLER_32_363
*1104 FILLER_32_365
*1105 FILLER_32_41
*1106 FILLER_32_53
*1107 FILLER_32_65
*1108 FILLER_32_77
*1109 FILLER_32_83
*1110 FILLER_32_85
*1111 FILLER_32_97
*1112 FILLER_33_105
*1113 FILLER_33_111
*1114 FILLER_33_113
*1115 FILLER_33_125
*1116 FILLER_33_137
*1117 FILLER_33_149
*1118 FILLER_33_15
*1119 FILLER_33_161
*1120 FILLER_33_167
*1121 FILLER_33_169
*1122 FILLER_33_181
*1123 FILLER_33_193
*1124 FILLER_33_205
*1125 FILLER_33_217
*1126 FILLER_33_223
*1127 FILLER_33_225
*1128 FILLER_33_237
*1129 FILLER_33_249
*1130 FILLER_33_261
*1131 FILLER_33_27
*1132 FILLER_33_273
*1133 FILLER_33_279
*1134 FILLER_33_281
*1135 FILLER_33_293
*1136 FILLER_33_3
*1137 FILLER_33_305
*1138 FILLER_33_317
*1139 FILLER_33_329
*1140 FILLER_33_335
*1141 FILLER_33_337
*1142 FILLER_33_349
*1143 FILLER_33_361
*1144 FILLER_33_367
*1145 FILLER_33_39
*1146 FILLER_33_51
*1147 FILLER_33_55
*1148 FILLER_33_57
*1149 FILLER_33_69
*1150 FILLER_33_81
*1151 FILLER_33_93
*1152 FILLER_34_109
*1153 FILLER_34_121
*1154 FILLER_34_133
*1155 FILLER_34_139
*1156 FILLER_34_141
*1157 FILLER_34_15
*1158 FILLER_34_153
*1159 FILLER_34_165
*1160 FILLER_34_177
*1161 FILLER_34_189
*1162 FILLER_34_195
*1163 FILLER_34_197
*1164 FILLER_34_209
*1165 FILLER_34_221
*1166 FILLER_34_233
*1167 FILLER_34_245
*1168 FILLER_34_251
*1169 FILLER_34_253
*1170 FILLER_34_265
*1171 FILLER_34_27
*1172 FILLER_34_277
*1173 FILLER_34_289
*1174 FILLER_34_29
*1175 FILLER_34_3
*1176 FILLER_34_301
*1177 FILLER_34_307
*1178 FILLER_34_309
*1179 FILLER_34_321
*1180 FILLER_34_333
*1181 FILLER_34_345
*1182 FILLER_34_357
*1183 FILLER_34_363
*1184 FILLER_34_365
*1185 FILLER_34_41
*1186 FILLER_34_53
*1187 FILLER_34_65
*1188 FILLER_34_77
*1189 FILLER_34_83
*1190 FILLER_34_85
*1191 FILLER_34_97
*1192 FILLER_35_105
*1193 FILLER_35_111
*1194 FILLER_35_113
*1195 FILLER_35_125
*1196 FILLER_35_137
*1197 FILLER_35_149
*1198 FILLER_35_15
*1199 FILLER_35_161
*1200 FILLER_35_167
*1201 FILLER_35_169
*1202 FILLER_35_181
*1203 FILLER_35_193
*1204 FILLER_35_205
*1205 FILLER_35_217
*1206 FILLER_35_223
*1207 FILLER_35_225
*1208 FILLER_35_237
*1209 FILLER_35_249
*1210 FILLER_35_261
*1211 FILLER_35_27
*1212 FILLER_35_273
*1213 FILLER_35_279
*1214 FILLER_35_281
*1215 FILLER_35_293
*1216 FILLER_35_3
*1217 FILLER_35_305
*1218 FILLER_35_317
*1219 FILLER_35_329
*1220 FILLER_35_335
*1221 FILLER_35_337
*1222 FILLER_35_349
*1223 FILLER_35_361
*1224 FILLER_35_367
*1225 FILLER_35_39
*1226 FILLER_35_51
*1227 FILLER_35_55
*1228 FILLER_35_57
*1229 FILLER_35_69
*1230 FILLER_35_81
*1231 FILLER_35_93
*1232 FILLER_36_109
*1233 FILLER_36_121
*1234 FILLER_36_133
*1235 FILLER_36_139
*1236 FILLER_36_141
*1237 FILLER_36_15
*1238 FILLER_36_153
*1239 FILLER_36_165
*1240 FILLER_36_177
*1241 FILLER_36_189
*1242 FILLER_36_195
*1243 FILLER_36_197
*1244 FILLER_36_209
*1245 FILLER_36_221
*1246 FILLER_36_233
*1247 FILLER_36_245
*1248 FILLER_36_251
*1249 FILLER_36_253
*1250 FILLER_36_265
*1251 FILLER_36_27
*1252 FILLER_36_277
*1253 FILLER_36_289
*1254 FILLER_36_29
*1255 FILLER_36_3
*1256 FILLER_36_301
*1257 FILLER_36_307
*1258 FILLER_36_309
*1259 FILLER_36_321
*1260 FILLER_36_333
*1261 FILLER_36_345
*1262 FILLER_36_357
*1263 FILLER_36_363
*1264 FILLER_36_365
*1265 FILLER_36_41
*1266 FILLER_36_53
*1267 FILLER_36_65
*1268 FILLER_36_77
*1269 FILLER_36_83
*1270 FILLER_36_85
*1271 FILLER_36_97
*1272 FILLER_37_105
*1273 FILLER_37_111
*1274 FILLER_37_113
*1275 FILLER_37_125
*1276 FILLER_37_137
*1277 FILLER_37_149
*1278 FILLER_37_15
*1279 FILLER_37_161
*1280 FILLER_37_167
*1281 FILLER_37_169
*1282 FILLER_37_181
*1283 FILLER_37_193
*1284 FILLER_37_205
*1285 FILLER_37_217
*1286 FILLER_37_223
*1287 FILLER_37_225
*1288 FILLER_37_237
*1289 FILLER_37_249
*1290 FILLER_37_261
*1291 FILLER_37_27
*1292 FILLER_37_273
*1293 FILLER_37_279
*1294 FILLER_37_281
*1295 FILLER_37_293
*1296 FILLER_37_3
*1297 FILLER_37_305
*1298 FILLER_37_317
*1299 FILLER_37_329
*1300 FILLER_37_335
*1301 FILLER_37_337
*1302 FILLER_37_349
*1303 FILLER_37_361
*1304 FILLER_37_367
*1305 FILLER_37_39
*1306 FILLER_37_51
*1307 FILLER_37_55
*1308 FILLER_37_57
*1309 FILLER_37_69
*1310 FILLER_37_81
*1311 FILLER_37_93
*1312 FILLER_38_109
*1313 FILLER_38_121
*1314 FILLER_38_133
*1315 FILLER_38_139
*1316 FILLER_38_141
*1317 FILLER_38_15
*1318 FILLER_38_153
*1319 FILLER_38_165
*1320 FILLER_38_177
*1321 FILLER_38_189
*1322 FILLER_38_195
*1323 FILLER_38_197
*1324 FILLER_38_209
*1325 FILLER_38_221
*1326 FILLER_38_233
*1327 FILLER_38_245
*1328 FILLER_38_251
*1329 FILLER_38_253
*1330 FILLER_38_265
*1331 FILLER_38_27
*1332 FILLER_38_277
*1333 FILLER_38_289
*1334 FILLER_38_29
*1335 FILLER_38_3
*1336 FILLER_38_301
*1337 FILLER_38_307
*1338 FILLER_38_309
*1339 FILLER_38_321
*1340 FILLER_38_333
*1341 FILLER_38_345
*1342 FILLER_38_357
*1343 FILLER_38_363
*1344 FILLER_38_365
*1345 FILLER_38_41
*1346 FILLER_38_53
*1347 FILLER_38_65
*1348 FILLER_38_77
*1349 FILLER_38_83
*1350 FILLER_38_85
*1351 FILLER_38_97
*1352 FILLER_39_105
*1353 FILLER_39_111
*1354 FILLER_39_113
*1355 FILLER_39_125
*1356 FILLER_39_137
*1357 FILLER_39_149
*1358 FILLER_39_15
*1359 FILLER_39_161
*1360 FILLER_39_167
*1361 FILLER_39_169
*1362 FILLER_39_181
*1363 FILLER_39_193
*1364 FILLER_39_205
*1365 FILLER_39_217
*1366 FILLER_39_223
*1367 FILLER_39_225
*1368 FILLER_39_237
*1369 FILLER_39_249
*1370 FILLER_39_261
*1371 FILLER_39_27
*1372 FILLER_39_273
*1373 FILLER_39_279
*1374 FILLER_39_281
*1375 FILLER_39_293
*1376 FILLER_39_3
*1377 FILLER_39_305
*1378 FILLER_39_317
*1379 FILLER_39_329
*1380 FILLER_39_335
*1381 FILLER_39_337
*1382 FILLER_39_349
*1383 FILLER_39_361
*1384 FILLER_39_367
*1385 FILLER_39_39
*1386 FILLER_39_51
*1387 FILLER_39_55
*1388 FILLER_39_57
*1389 FILLER_39_69
*1390 FILLER_39_81
*1391 FILLER_39_93
*1392 FILLER_3_105
*1393 FILLER_3_111
*1394 FILLER_3_113
*1395 FILLER_3_125
*1396 FILLER_3_137
*1397 FILLER_3_149
*1398 FILLER_3_15
*1399 FILLER_3_161
*1400 FILLER_3_167
*1401 FILLER_3_169
*1402 FILLER_3_181
*1403 FILLER_3_193
*1404 FILLER_3_205
*1405 FILLER_3_217
*1406 FILLER_3_223
*1407 FILLER_3_225
*1408 FILLER_3_237
*1409 FILLER_3_249
*1410 FILLER_3_261
*1411 FILLER_3_27
*1412 FILLER_3_273
*1413 FILLER_3_279
*1414 FILLER_3_281
*1415 FILLER_3_293
*1416 FILLER_3_3
*1417 FILLER_3_305
*1418 FILLER_3_317
*1419 FILLER_3_329
*1420 FILLER_3_335
*1421 FILLER_3_337
*1422 FILLER_3_349
*1423 FILLER_3_355
*1424 FILLER_3_366
*1425 FILLER_3_39
*1426 FILLER_3_51
*1427 FILLER_3_55
*1428 FILLER_3_57
*1429 FILLER_3_69
*1430 FILLER_3_81
*1431 FILLER_3_93
*1432 FILLER_40_109
*1433 FILLER_40_121
*1434 FILLER_40_133
*1435 FILLER_40_139
*1436 FILLER_40_141
*1437 FILLER_40_15
*1438 FILLER_40_153
*1439 FILLER_40_165
*1440 FILLER_40_177
*1441 FILLER_40_189
*1442 FILLER_40_195
*1443 FILLER_40_197
*1444 FILLER_40_209
*1445 FILLER_40_221
*1446 FILLER_40_233
*1447 FILLER_40_245
*1448 FILLER_40_251
*1449 FILLER_40_253
*1450 FILLER_40_265
*1451 FILLER_40_27
*1452 FILLER_40_277
*1453 FILLER_40_289
*1454 FILLER_40_29
*1455 FILLER_40_3
*1456 FILLER_40_301
*1457 FILLER_40_307
*1458 FILLER_40_309
*1459 FILLER_40_321
*1460 FILLER_40_333
*1461 FILLER_40_345
*1462 FILLER_40_357
*1463 FILLER_40_363
*1464 FILLER_40_365
*1465 FILLER_40_41
*1466 FILLER_40_53
*1467 FILLER_40_65
*1468 FILLER_40_77
*1469 FILLER_40_83
*1470 FILLER_40_85
*1471 FILLER_40_97
*1472 FILLER_41_105
*1473 FILLER_41_111
*1474 FILLER_41_113
*1475 FILLER_41_125
*1476 FILLER_41_137
*1477 FILLER_41_149
*1478 FILLER_41_15
*1479 FILLER_41_161
*1480 FILLER_41_167
*1481 FILLER_41_169
*1482 FILLER_41_181
*1483 FILLER_41_193
*1484 FILLER_41_205
*1485 FILLER_41_217
*1486 FILLER_41_223
*1487 FILLER_41_225
*1488 FILLER_41_237
*1489 FILLER_41_249
*1490 FILLER_41_261
*1491 FILLER_41_27
*1492 FILLER_41_273
*1493 FILLER_41_279
*1494 FILLER_41_281
*1495 FILLER_41_293
*1496 FILLER_41_3
*1497 FILLER_41_305
*1498 FILLER_41_317
*1499 FILLER_41_329
*1500 FILLER_41_335
*1501 FILLER_41_337
*1502 FILLER_41_349
*1503 FILLER_41_361
*1504 FILLER_41_367
*1505 FILLER_41_39
*1506 FILLER_41_51
*1507 FILLER_41_55
*1508 FILLER_41_57
*1509 FILLER_41_69
*1510 FILLER_41_81
*1511 FILLER_41_93
*1512 FILLER_42_109
*1513 FILLER_42_121
*1514 FILLER_42_133
*1515 FILLER_42_139
*1516 FILLER_42_141
*1517 FILLER_42_15
*1518 FILLER_42_153
*1519 FILLER_42_165
*1520 FILLER_42_177
*1521 FILLER_42_189
*1522 FILLER_42_195
*1523 FILLER_42_197
*1524 FILLER_42_209
*1525 FILLER_42_221
*1526 FILLER_42_233
*1527 FILLER_42_245
*1528 FILLER_42_251
*1529 FILLER_42_253
*1530 FILLER_42_265
*1531 FILLER_42_27
*1532 FILLER_42_277
*1533 FILLER_42_289
*1534 FILLER_42_29
*1535 FILLER_42_3
*1536 FILLER_42_301
*1537 FILLER_42_307
*1538 FILLER_42_309
*1539 FILLER_42_321
*1540 FILLER_42_333
*1541 FILLER_42_345
*1542 FILLER_42_357
*1543 FILLER_42_363
*1544 FILLER_42_365
*1545 FILLER_42_41
*1546 FILLER_42_53
*1547 FILLER_42_65
*1548 FILLER_42_77
*1549 FILLER_42_83
*1550 FILLER_42_85
*1551 FILLER_42_97
*1552 FILLER_43_105
*1553 FILLER_43_111
*1554 FILLER_43_113
*1555 FILLER_43_125
*1556 FILLER_43_137
*1557 FILLER_43_149
*1558 FILLER_43_15
*1559 FILLER_43_161
*1560 FILLER_43_167
*1561 FILLER_43_169
*1562 FILLER_43_181
*1563 FILLER_43_193
*1564 FILLER_43_205
*1565 FILLER_43_217
*1566 FILLER_43_223
*1567 FILLER_43_225
*1568 FILLER_43_237
*1569 FILLER_43_249
*1570 FILLER_43_261
*1571 FILLER_43_27
*1572 FILLER_43_273
*1573 FILLER_43_279
*1574 FILLER_43_281
*1575 FILLER_43_293
*1576 FILLER_43_3
*1577 FILLER_43_305
*1578 FILLER_43_317
*1579 FILLER_43_329
*1580 FILLER_43_335
*1581 FILLER_43_337
*1582 FILLER_43_349
*1583 FILLER_43_361
*1584 FILLER_43_367
*1585 FILLER_43_39
*1586 FILLER_43_51
*1587 FILLER_43_55
*1588 FILLER_43_57
*1589 FILLER_43_69
*1590 FILLER_43_81
*1591 FILLER_43_93
*1592 FILLER_44_109
*1593 FILLER_44_121
*1594 FILLER_44_133
*1595 FILLER_44_139
*1596 FILLER_44_141
*1597 FILLER_44_15