*SPEF "ieee 1481-1999"
*DESIGN "R4_butter"
*DATE "11:11:11 Fri 11 11, 1111"
*VENDOR "OpenRCX"
*PROGRAM "Parallel Extraction"
*VERSION "1.0"
*DESIGN_FLOW "NAME_SCOPE LOCAL" "PIN_CAP NONE"
*DIVIDER /
*DELIMITER :
*BUS_DELIMITER []
*T_UNIT 1 NS
*C_UNIT 1 PF
*R_UNIT 1 OHM
*L_UNIT 1 HENRY

*NAME_MAP
*1 CLK
*2 RST
*3 Xio[0]
*4 net14
*5 net15
*6 net16
*7 Xro[0]
*8 net17
*9 net18
*10 net19
*11 c1
*12 c2
*13 c3
*16 xi0[0]
*17 xi0[1]
*18 xi0[2]
*19 xi0[3]
*20 xi1[0]
*21 xi1[1]
*22 xi1[2]
*23 xi1[3]
*24 xi2[0]
*25 xi2[1]
*26 xi2[2]
*27 xi2[3]
*28 xi3[0]
*29 xi3[1]
*30 xi3[2]
*31 xi3[3]
*32 xr0[0]
*33 xr0[1]
*34 xr0[2]
*35 xr0[3]
*36 xr1[0]
*37 xr1[1]
*38 xr1[2]
*39 xr1[3]
*40 xr2[0]
*41 xr2[1]
*42 xr2[2]
*43 xr2[3]
*44 xr3[0]
*45 xr3[1]
*46 xr3[2]
*47 xr3[3]
*48 Q1
*49 Q10
*50 Q11
*51 Q12
*52 Q2
*53 Q5
*54 Q6
*55 Q8
*56 _00_
*57 _01_
*58 _02_
*59 _03_
*60 _04_
*61 _05_
*62 _06_
*63 _07_
*64 _08_
*65 _09_
*66 _10_
*67 _11_
*68 _12_
*69 _13_
*70 _14_
*71 _15_
*72 _16_
*73 _17_
*74 _18_
*75 _19_
*76 net1
*77 net10
*78 net11
*79 net12
*80 net13
*81 net2
*82 net3
*83 net4
*84 net5
*85 net6
*86 net7
*87 net8
*88 net9
*89 FILLER_0_109
*90 FILLER_0_113
*91 FILLER_0_125
*92 FILLER_0_137
*93 FILLER_0_141
*94 FILLER_0_153
*95 FILLER_0_165
*96 FILLER_0_169
*97 FILLER_0_18
*98 FILLER_0_181
*99 FILLER_0_193
*100 FILLER_0_197
*101 FILLER_0_209
*102 FILLER_0_22
*103 FILLER_0_221
*104 FILLER_0_225
*105 FILLER_0_237
*106 FILLER_0_249
*107 FILLER_0_253
*108 FILLER_0_26
*109 FILLER_0_265
*110 FILLER_0_277
*111 FILLER_0_281
*112 FILLER_0_29
*113 FILLER_0_293
*114 FILLER_0_297
*115 FILLER_0_3
*116 FILLER_0_306
*117 FILLER_0_309
*118 FILLER_0_315
*119 FILLER_0_324
*120 FILLER_0_333
*121 FILLER_0_337
*122 FILLER_0_342
*123 FILLER_0_351
*124 FILLER_0_357
*125 FILLER_0_36
*126 FILLER_0_362
*127 FILLER_0_365
*128 FILLER_0_45
*129 FILLER_0_54
*130 FILLER_0_57
*131 FILLER_0_63
*132 FILLER_0_72
*133 FILLER_0_85
*134 FILLER_0_9
*135 FILLER_0_97
*136 FILLER_10_109
*137 FILLER_10_121
*138 FILLER_10_133
*139 FILLER_10_139
*140 FILLER_10_141
*141 FILLER_10_15
*142 FILLER_10_153
*143 FILLER_10_165
*144 FILLER_10_177
*145 FILLER_10_189
*146 FILLER_10_195
*147 FILLER_10_197
*148 FILLER_10_209
*149 FILLER_10_221
*150 FILLER_10_233
*151 FILLER_10_245
*152 FILLER_10_251
*153 FILLER_10_253
*154 FILLER_10_265
*155 FILLER_10_27
*156 FILLER_10_277
*157 FILLER_10_289
*158 FILLER_10_29
*159 FILLER_10_3
*160 FILLER_10_301
*161 FILLER_10_307
*162 FILLER_10_309
*163 FILLER_10_321
*164 FILLER_10_333
*165 FILLER_10_345
*166 FILLER_10_357
*167 FILLER_10_363
*168 FILLER_10_365
*169 FILLER_10_41
*170 FILLER_10_53
*171 FILLER_10_65
*172 FILLER_10_77
*173 FILLER_10_83
*174 FILLER_10_85
*175 FILLER_10_97
*176 FILLER_11_105
*177 FILLER_11_111
*178 FILLER_11_113
*179 FILLER_11_125
*180 FILLER_11_137
*181 FILLER_11_149
*182 FILLER_11_15
*183 FILLER_11_161
*184 FILLER_11_167
*185 FILLER_11_169
*186 FILLER_11_181
*187 FILLER_11_193
*188 FILLER_11_205
*189 FILLER_11_217
*190 FILLER_11_223
*191 FILLER_11_225
*192 FILLER_11_237
*193 FILLER_11_249
*194 FILLER_11_261
*195 FILLER_11_27
*196 FILLER_11_273
*197 FILLER_11_279
*198 FILLER_11_281
*199 FILLER_11_293
*200 FILLER_11_3
*201 FILLER_11_305
*202 FILLER_11_317
*203 FILLER_11_329
*204 FILLER_11_335
*205 FILLER_11_337
*206 FILLER_11_349
*207 FILLER_11_361
*208 FILLER_11_367
*209 FILLER_11_39
*210 FILLER_11_51
*211 FILLER_11_55
*212 FILLER_11_57
*213 FILLER_11_69
*214 FILLER_11_81
*215 FILLER_11_93
*216 FILLER_12_109
*217 FILLER_12_121
*218 FILLER_12_133
*219 FILLER_12_139
*220 FILLER_12_141
*221 FILLER_12_15
*222 FILLER_12_153
*223 FILLER_12_165
*224 FILLER_12_177
*225 FILLER_12_189
*226 FILLER_12_195
*227 FILLER_12_197
*228 FILLER_12_209
*229 FILLER_12_221
*230 FILLER_12_233
*231 FILLER_12_245
*232 FILLER_12_251
*233 FILLER_12_253
*234 FILLER_12_265
*235 FILLER_12_27
*236 FILLER_12_277
*237 FILLER_12_289
*238 FILLER_12_29
*239 FILLER_12_3
*240 FILLER_12_301
*241 FILLER_12_307
*242 FILLER_12_309
*243 FILLER_12_321
*244 FILLER_12_333
*245 FILLER_12_345
*246 FILLER_12_357
*247 FILLER_12_363
*248 FILLER_12_365
*249 FILLER_12_41
*250 FILLER_12_53
*251 FILLER_12_65
*252 FILLER_12_77
*253 FILLER_12_83
*254 FILLER_12_85
*255 FILLER_12_97
*256 FILLER_13_105
*257 FILLER_13_111
*258 FILLER_13_113
*259 FILLER_13_125
*260 FILLER_13_137
*261 FILLER_13_149
*262 FILLER_13_15
*263 FILLER_13_161
*264 FILLER_13_167
*265 FILLER_13_169
*266 FILLER_13_181
*267 FILLER_13_193
*268 FILLER_13_205
*269 FILLER_13_217
*270 FILLER_13_223
*271 FILLER_13_225
*272 FILLER_13_237
*273 FILLER_13_249
*274 FILLER_13_261
*275 FILLER_13_27
*276 FILLER_13_273
*277 FILLER_13_279
*278 FILLER_13_281
*279 FILLER_13_293
*280 FILLER_13_3
*281 FILLER_13_305
*282 FILLER_13_317
*283 FILLER_13_329
*284 FILLER_13_335
*285 FILLER_13_337
*286 FILLER_13_349
*287 FILLER_13_361
*288 FILLER_13_367
*289 FILLER_13_39
*290 FILLER_13_51
*291 FILLER_13_55
*292 FILLER_13_57
*293 FILLER_13_69
*294 FILLER_13_81
*295 FILLER_13_93
*296 FILLER_14_109
*297 FILLER_14_121
*298 FILLER_14_133
*299 FILLER_14_139
*300 FILLER_14_141
*301 FILLER_14_15
*302 FILLER_14_153
*303 FILLER_14_165
*304 FILLER_14_177
*305 FILLER_14_189
*306 FILLER_14_195
*307 FILLER_14_197
*308 FILLER_14_209
*309 FILLER_14_221
*310 FILLER_14_233
*311 FILLER_14_245
*312 FILLER_14_251
*313 FILLER_14_253
*314 FILLER_14_265
*315 FILLER_14_27
*316 FILLER_14_277
*317 FILLER_14_289
*318 FILLER_14_29
*319 FILLER_14_3
*320 FILLER_14_301
*321 FILLER_14_307
*322 FILLER_14_309
*323 FILLER_14_321
*324 FILLER_14_333
*325 FILLER_14_345
*326 FILLER_14_357
*327 FILLER_14_363
*328 FILLER_14_365
*329 FILLER_14_41
*330 FILLER_14_53
*331 FILLER_14_65
*332 FILLER_14_77
*333 FILLER_14_83
*334 FILLER_14_85
*335 FILLER_14_97
*336 FILLER_15_105
*337 FILLER_15_111
*338 FILLER_15_113
*339 FILLER_15_125
*340 FILLER_15_137
*341 FILLER_15_149
*342 FILLER_15_15
*343 FILLER_15_161
*344 FILLER_15_167
*345 FILLER_15_169
*346 FILLER_15_181
*347 FILLER_15_193
*348 FILLER_15_205
*349 FILLER_15_217
*350 FILLER_15_223
*351 FILLER_15_225
*352 FILLER_15_237
*353 FILLER_15_249
*354 FILLER_15_261
*355 FILLER_15_27
*356 FILLER_15_273
*357 FILLER_15_279
*358 FILLER_15_281
*359 FILLER_15_293
*360 FILLER_15_3
*361 FILLER_15_305
*362 FILLER_15_317
*363 FILLER_15_329
*364 FILLER_15_335
*365 FILLER_15_337
*366 FILLER_15_349
*367 FILLER_15_361
*368 FILLER_15_367
*369 FILLER_15_39
*370 FILLER_15_51
*371 FILLER_15_55
*372 FILLER_15_57
*373 FILLER_15_69
*374 FILLER_15_81
*375 FILLER_15_93
*376 FILLER_16_109
*377 FILLER_16_121
*378 FILLER_16_133
*379 FILLER_16_139
*380 FILLER_16_141
*381 FILLER_16_15
*382 FILLER_16_153
*383 FILLER_16_165
*384 FILLER_16_177
*385 FILLER_16_189
*386 FILLER_16_195
*387 FILLER_16_197
*388 FILLER_16_209
*389 FILLER_16_221
*390 FILLER_16_233
*391 FILLER_16_245
*392 FILLER_16_251
*393 FILLER_16_253
*394 FILLER_16_265
*395 FILLER_16_27
*396 FILLER_16_277
*397 FILLER_16_289
*398 FILLER_16_29
*399 FILLER_16_3
*400 FILLER_16_301
*401 FILLER_16_307
*402 FILLER_16_309
*403 FILLER_16_321
*404 FILLER_16_333
*405 FILLER_16_345
*406 FILLER_16_357
*407 FILLER_16_363
*408 FILLER_16_365
*409 FILLER_16_41
*410 FILLER_16_53
*411 FILLER_16_65
*412 FILLER_16_77
*413 FILLER_16_83
*414 FILLER_16_85
*415 FILLER_16_97
*416 FILLER_17_105
*417 FILLER_17_111
*418 FILLER_17_113
*419 FILLER_17_125
*420 FILLER_17_137
*421 FILLER_17_149
*422 FILLER_17_15
*423 FILLER_17_161
*424 FILLER_17_167
*425 FILLER_17_169
*426 FILLER_17_181
*427 FILLER_17_193
*428 FILLER_17_205
*429 FILLER_17_217
*430 FILLER_17_223
*431 FILLER_17_225
*432 FILLER_17_237
*433 FILLER_17_249
*434 FILLER_17_261
*435 FILLER_17_27
*436 FILLER_17_273
*437 FILLER_17_279
*438 FILLER_17_281
*439 FILLER_17_293
*440 FILLER_17_3
*441 FILLER_17_305
*442 FILLER_17_317
*443 FILLER_17_329
*444 FILLER_17_335
*445 FILLER_17_337
*446 FILLER_17_349
*447 FILLER_17_361
*448 FILLER_17_367
*449 FILLER_17_39
*450 FILLER_17_51
*451 FILLER_17_55
*452 FILLER_17_57
*453 FILLER_17_69
*454 FILLER_17_81
*455 FILLER_17_93
*456 FILLER_18_109
*457 FILLER_18_121
*458 FILLER_18_133
*459 FILLER_18_139
*460 FILLER_18_141
*461 FILLER_18_15
*462 FILLER_18_153
*463 FILLER_18_165
*464 FILLER_18_177
*465 FILLER_18_189
*466 FILLER_18_195
*467 FILLER_18_197
*468 FILLER_18_209
*469 FILLER_18_221
*470 FILLER_18_233
*471 FILLER_18_245
*472 FILLER_18_251
*473 FILLER_18_253
*474 FILLER_18_265
*475 FILLER_18_27
*476 FILLER_18_277
*477 FILLER_18_289
*478 FILLER_18_29
*479 FILLER_18_3
*480 FILLER_18_301
*481 FILLER_18_307
*482 FILLER_18_309
*483 FILLER_18_321
*484 FILLER_18_333
*485 FILLER_18_345
*486 FILLER_18_357
*487 FILLER_18_363
*488 FILLER_18_365
*489 FILLER_18_41
*490 FILLER_18_53
*491 FILLER_18_65
*492 FILLER_18_77
*493 FILLER_18_83
*494 FILLER_18_85
*495 FILLER_18_97
*496 FILLER_19_105
*497 FILLER_19_111
*498 FILLER_19_113
*499 FILLER_19_125
*500 FILLER_19_137
*501 FILLER_19_149
*502 FILLER_19_15
*503 FILLER_19_161
*504 FILLER_19_167
*505 FILLER_19_169
*506 FILLER_19_181
*507 FILLER_19_193
*508 FILLER_19_205
*509 FILLER_19_217
*510 FILLER_19_223
*511 FILLER_19_225
*512 FILLER_19_237
*513 FILLER_19_249
*514 FILLER_19_261
*515 FILLER_19_27
*516 FILLER_19_273
*517 FILLER_19_279
*518 FILLER_19_281
*519 FILLER_19_293
*520 FILLER_19_3
*521 FILLER_19_305
*522 FILLER_19_317
*523 FILLER_19_329
*524 FILLER_19_335
*525 FILLER_19_337
*526 FILLER_19_349
*527 FILLER_19_361
*528 FILLER_19_367
*529 FILLER_19_39
*530 FILLER_19_51
*531 FILLER_19_55
*532 FILLER_19_57
*533 FILLER_19_69
*534 FILLER_19_81
*535 FILLER_19_93
*536 FILLER_1_100
*537 FILLER_1_113
*538 FILLER_1_131
*539 FILLER_1_143
*540 FILLER_1_15
*541 FILLER_1_155
*542 FILLER_1_167
*543 FILLER_1_169
*544 FILLER_1_181
*545 FILLER_1_193
*546 FILLER_1_205
*547 FILLER_1_21
*548 FILLER_1_217
*549 FILLER_1_223
*550 FILLER_1_225
*551 FILLER_1_237
*552 FILLER_1_249
*553 FILLER_1_261
*554 FILLER_1_27
*555 FILLER_1_273
*556 FILLER_1_279
*557 FILLER_1_281
*558 FILLER_1_293
*559 FILLER_1_3
*560 FILLER_1_305
*561 FILLER_1_317
*562 FILLER_1_329
*563 FILLER_1_335
*564 FILLER_1_337
*565 FILLER_1_349
*566 FILLER_1_360
*567 FILLER_1_47
*568 FILLER_1_54
*569 FILLER_1_57
*570 FILLER_1_64
*571 FILLER_1_88
*572 FILLER_20_109
*573 FILLER_20_121
*574 FILLER_20_133
*575 FILLER_20_139
*576 FILLER_20_141
*577 FILLER_20_15
*578 FILLER_20_153
*579 FILLER_20_165
*580 FILLER_20_177
*581 FILLER_20_189
*582 FILLER_20_195
*583 FILLER_20_197
*584 FILLER_20_209
*585 FILLER_20_221
*586 FILLER_20_233
*587 FILLER_20_245
*588 FILLER_20_251
*589 FILLER_20_253
*590 FILLER_20_265
*591 FILLER_20_27
*592 FILLER_20_277
*593 FILLER_20_289
*594 FILLER_20_29
*595 FILLER_20_3
*596 FILLER_20_301
*597 FILLER_20_307
*598 FILLER_20_309
*599 FILLER_20_321
*600 FILLER_20_333
*601 FILLER_20_345
*602 FILLER_20_357
*603 FILLER_20_363
*604 FILLER_20_365
*605 FILLER_20_41
*606 FILLER_20_53
*607 FILLER_20_65
*608 FILLER_20_77
*609 FILLER_20_83
*610 FILLER_20_85
*611 FILLER_20_97
*612 FILLER_21_105
*613 FILLER_21_111
*614 FILLER_21_113
*615 FILLER_21_125
*616 FILLER_21_137
*617 FILLER_21_149
*618 FILLER_21_15
*619 FILLER_21_161
*620 FILLER_21_167
*621 FILLER_21_169
*622 FILLER_21_181
*623 FILLER_21_193
*624 FILLER_21_205
*625 FILLER_21_217
*626 FILLER_21_223
*627 FILLER_21_225
*628 FILLER_21_237
*629 FILLER_21_249
*630 FILLER_21_261
*631 FILLER_21_27
*632 FILLER_21_273
*633 FILLER_21_279
*634 FILLER_21_281
*635 FILLER_21_293
*636 FILLER_21_3
*637 FILLER_21_305
*638 FILLER_21_317
*639 FILLER_21_329
*640 FILLER_21_335
*641 FILLER_21_337
*642 FILLER_21_349
*643 FILLER_21_361
*644 FILLER_21_367
*645 FILLER_21_39
*646 FILLER_21_51
*647 FILLER_21_55
*648 FILLER_21_57
*649 FILLER_21_69
*650 FILLER_21_81
*651 FILLER_21_93
*652 FILLER_22_109
*653 FILLER_22_121
*654 FILLER_22_133
*655 FILLER_22_139
*656 FILLER_22_141
*657 FILLER_22_15
*658 FILLER_22_153
*659 FILLER_22_165
*660 FILLER_22_177
*661 FILLER_22_189
*662 FILLER_22_195
*663 FILLER_22_197
*664 FILLER_22_209
*665 FILLER_22_221
*666 FILLER_22_233
*667 FILLER_22_245
*668 FILLER_22_251
*669 FILLER_22_253
*670 FILLER_22_265
*671 FILLER_22_27
*672 FILLER_22_277
*673 FILLER_22_289
*674 FILLER_22_29
*675 FILLER_22_3
*676 FILLER_22_301
*677 FILLER_22_307
*678 FILLER_22_309
*679 FILLER_22_321
*680 FILLER_22_333
*681 FILLER_22_345
*682 FILLER_22_357
*683 FILLER_22_363
*684 FILLER_22_365
*685 FILLER_22_41
*686 FILLER_22_53
*687 FILLER_22_65
*688 FILLER_22_77
*689 FILLER_22_83
*690 FILLER_22_85
*691 FILLER_22_97
*692 FILLER_23_105
*693 FILLER_23_111
*694 FILLER_23_113
*695 FILLER_23_125
*696 FILLER_23_137
*697 FILLER_23_149
*698 FILLER_23_15
*699 FILLER_23_161
*700 FILLER_23_167
*701 FILLER_23_169
*702 FILLER_23_181
*703 FILLER_23_193
*704 FILLER_23_205
*705 FILLER_23_217
*706 FILLER_23_223
*707 FILLER_23_225
*708 FILLER_23_237
*709 FILLER_23_249
*710 FILLER_23_261
*711 FILLER_23_27
*712 FILLER_23_273
*713 FILLER_23_279
*714 FILLER_23_281
*715 FILLER_23_293
*716 FILLER_23_3
*717 FILLER_23_305
*718 FILLER_23_317
*719 FILLER_23_329
*720 FILLER_23_335
*721 FILLER_23_337
*722 FILLER_23_349
*723 FILLER_23_361
*724 FILLER_23_367
*725 FILLER_23_39
*726 FILLER_23_51
*727 FILLER_23_55
*728 FILLER_23_57
*729 FILLER_23_69
*730 FILLER_23_81
*731 FILLER_23_93
*732 FILLER_24_109
*733 FILLER_24_121
*734 FILLER_24_133
*735 FILLER_24_139
*736 FILLER_24_141
*737 FILLER_24_15
*738 FILLER_24_153
*739 FILLER_24_165
*740 FILLER_24_177
*741 FILLER_24_189
*742 FILLER_24_195
*743 FILLER_24_197
*744 FILLER_24_209
*745 FILLER_24_221
*746 FILLER_24_233
*747 FILLER_24_245
*748 FILLER_24_251
*749 FILLER_24_253
*750 FILLER_24_265
*751 FILLER_24_27
*752 FILLER_24_277
*753 FILLER_24_289
*754 FILLER_24_29
*755 FILLER_24_3
*756 FILLER_24_301
*757 FILLER_24_307
*758 FILLER_24_309
*759 FILLER_24_321
*760 FILLER_24_333
*761 FILLER_24_345
*762 FILLER_24_357
*763 FILLER_24_363
*764 FILLER_24_365
*765 FILLER_24_41
*766 FILLER_24_53
*767 FILLER_24_65
*768 FILLER_24_77
*769 FILLER_24_83
*770 FILLER_24_85
*771 FILLER_24_97
*772 FILLER_25_105
*773 FILLER_25_111
*774 FILLER_25_113
*775 FILLER_25_125
*776 FILLER_25_137
*777 FILLER_25_149
*778 FILLER_25_15
*779 FILLER_25_161
*780 FILLER_25_167
*781 FILLER_25_169
*782 FILLER_25_181
*783 FILLER_25_193
*784 FILLER_25_205
*785 FILLER_25_217
*786 FILLER_25_223
*787 FILLER_25_225
*788 FILLER_25_237
*789 FILLER_25_249
*790 FILLER_25_261
*791 FILLER_25_27
*792 FILLER_25_273
*793 FILLER_25_279
*794 FILLER_25_281
*795 FILLER_25_293
*796 FILLER_25_3
*797 FILLER_25_305
*798 FILLER_25_317
*799 FILLER_25_329
*800 FILLER_25_335
*801 FILLER_25_337
*802 FILLER_25_349
*803 FILLER_25_361
*804 FILLER_25_367
*805 FILLER_25_39
*806 FILLER_25_51
*807 FILLER_25_55
*808 FILLER_25_57
*809 FILLER_25_69
*810 FILLER_25_81
*811 FILLER_25_93
*812 FILLER_26_109
*813 FILLER_26_121
*814 FILLER_26_133
*815 FILLER_26_139
*816 FILLER_26_141
*817 FILLER_26_15
*818 FILLER_26_153
*819 FILLER_26_165
*820 FILLER_26_177
*821 FILLER_26_189
*822 FILLER_26_195
*823 FILLER_26_197
*824 FILLER_26_209
*825 FILLER_26_221
*826 FILLER_26_233
*827 FILLER_26_245
*828 FILLER_26_251
*829 FILLER_26_253
*830 FILLER_26_265
*831 FILLER_26_27
*832 FILLER_26_277
*833 FILLER_26_289
*834 FILLER_26_29
*835 FILLER_26_3
*836 FILLER_26_301
*837 FILLER_26_307
*838 FILLER_26_309
*839 FILLER_26_321
*840 FILLER_26_333
*841 FILLER_26_345
*842 FILLER_26_357
*843 FILLER_26_363
*844 FILLER_26_365
*845 FILLER_26_41
*846 FILLER_26_53
*847 FILLER_26_65
*848 FILLER_26_77
*849 FILLER_26_83
*850 FILLER_26_85
*851 FILLER_26_97
*852 FILLER_27_105
*853 FILLER_27_111
*854 FILLER_27_113
*855 FILLER_27_125
*856 FILLER_27_137
*857 FILLER_27_149
*858 FILLER_27_15
*859 FILLER_27_161
*860 FILLER_27_167
*861 FILLER_27_169
*862 FILLER_27_181
*863 FILLER_27_193
*864 FILLER_27_205
*865 FILLER_27_217
*866 FILLER_27_223
*867 FILLER_27_225
*868 FILLER_27_237
*869 FILLER_27_249
*870 FILLER_27_261
*871 FILLER_27_27
*872 FILLER_27_273
*873 FILLER_27_279
*874 FILLER_27_281
*875 FILLER_27_293
*876 FILLER_27_3
*877 FILLER_27_305
*878 FILLER_27_317
*879 FILLER_27_329
*880 FILLER_27_335
*881 FILLER_27_337
*882 FILLER_27_349
*883 FILLER_27_361
*884 FILLER_27_367
*885 FILLER_27_39
*886 FILLER_27_51
*887 FILLER_27_55
*888 FILLER_27_57
*889 FILLER_27_69
*890 FILLER_27_81
*891 FILLER_27_93
*892 FILLER_28_109
*893 FILLER_28_121
*894 FILLER_28_133
*895 FILLER_28_139
*896 FILLER_28_141
*897 FILLER_28_15
*898 FILLER_28_153
*899 FILLER_28_165
*900 FILLER_28_177
*901 FILLER_28_189
*902 FILLER_28_195
*903 FILLER_28_197
*904 FILLER_28_209
*905 FILLER_28_221
*906 FILLER_28_233
*907 FILLER_28_245
*908 FILLER_28_251
*909 FILLER_28_253
*910 FILLER_28_265
*911 FILLER_28_27
*912 FILLER_28_277
*913 FILLER_28_289
*914 FILLER_28_29
*915 FILLER_28_3
*916 FILLER_28_301
*917 FILLER_28_307
*918 FILLER_28_309
*919 FILLER_28_321
*920 FILLER_28_333
*921 FILLER_28_345
*922 FILLER_28_357
*923 FILLER_28_363
*924 FILLER_28_365
*925 FILLER_28_41
*926 FILLER_28_53
*927 FILLER_28_65
*928 FILLER_28_77
*929 FILLER_28_83
*930 FILLER_28_85
*931 FILLER_28_97
*932 FILLER_29_105
*933 FILLER_29_111
*934 FILLER_29_113
*935 FILLER_29_125
*936 FILLER_29_137
*937 FILLER_29_149
*938 FILLER_29_15
*939 FILLER_29_161
*940 FILLER_29_167
*941 FILLER_29_169
*942 FILLER_29_181
*943 FILLER_29_193
*944 FILLER_29_205
*945 FILLER_29_217
*946 FILLER_29_223
*947 FILLER_29_225
*948 FILLER_29_237
*949 FILLER_29_249
*950 FILLER_29_261
*951 FILLER_29_27
*952 FILLER_29_273
*953 FILLER_29_279
*954 FILLER_29_281
*955 FILLER_29_293
*956 FILLER_29_3
*957 FILLER_29_305
*958 FILLER_29_317
*959 FILLER_29_329
*960 FILLER_29_335
*961 FILLER_29_337
*962 FILLER_29_349
*963 FILLER_29_361
*964 FILLER_29_367
*965 FILLER_29_39
*966 FILLER_29_51
*967 FILLER_29_55
*968 FILLER_29_57
*969 FILLER_29_69
*970 FILLER_29_81
*971 FILLER_29_93
*972 FILLER_2_104
*973 FILLER_2_11
*974 FILLER_2_116
*975 FILLER_2_133
*976 FILLER_2_139
*977 FILLER_2_141
*978 FILLER_2_153
*979 FILLER_2_165
*980 FILLER_2_17
*981 FILLER_2_177
*982 FILLER_2_189
*983 FILLER_2_195
*984 FILLER_2_197
*985 FILLER_2_209
*986 FILLER_2_221
*987 FILLER_2_233
*988 FILLER_2_245
*989 FILLER_2_251
*990 FILLER_2_253
*991 FILLER_2_26
*992 FILLER_2_265
*993 FILLER_2_277
*994 FILLER_2_289
*995 FILLER_2_29
*996 FILLER_2_3
*997 FILLER_2_301
*998 FILLER_2_307
*999 FILLER_2_309
*1000 FILLER_2_321
*1001 FILLER_2_33
*1002 FILLER_2_333
*1003 FILLER_2_345
*1004 FILLER_2_357
*1005 FILLER_2_363
*1006 FILLER_2_365
*1007 FILLER_2_50
*1008 FILLER_2_54
*1009 FILLER_2_60
*1010 FILLER_2_80
*1011 FILLER_2_85
*1012 FILLER_2_92
*1013 FILLER_30_109
*1014 FILLER_30_121
*1015 FILLER_30_133
*1016 FILLER_30_139
*1017 FILLER_30_141
*1018 FILLER_30_15
*1019 FILLER_30_153
*1020 FILLER_30_165
*1021 FILLER_30_177
*1022 FILLER_30_189
*1023 FILLER_30_195
*1024 FILLER_30_197
*1025 FILLER_30_209
*1026 FILLER_30_221
*1027 FILLER_30_233
*1028 FILLER_30_245
*1029 FILLER_30_251
*1030 FILLER_30_253
*1031 FILLER_30_265
*1032 FILLER_30_27
*1033 FILLER_30_277
*1034 FILLER_30_289
*1035 FILLER_30_29
*1036 FILLER_30_3
*1037 FILLER_30_301
*1038 FILLER_30_307
*1039 FILLER_30_309
*1040 FILLER_30_321
*1041 FILLER_30_333
*1042 FILLER_30_345
*1043 FILLER_30_357
*1044 FILLER_30_363
*1045 FILLER_30_365
*1046 FILLER_30_41
*1047 FILLER_30_53
*1048 FILLER_30_65
*1049 FILLER_30_77
*1050 FILLER_30_83
*1051 FILLER_30_85
*1052 FILLER_30_97
*1053 FILLER_31_105
*1054 FILLER_31_111
*1055 FILLER_31_113
*1056 FILLER_31_125
*1057 FILLER_31_137
*1058 FILLER_31_149
*1059 FILLER_31_15
*1060 FILLER_31_161
*1061 FILLER_31_167
*1062 FILLER_31_169
*1063 FILLER_31_181
*1064 FILLER_31_193
*1065 FILLER_31_205
*1066 FILLER_31_217
*1067 FILLER_31_223
*1068 FILLER_31_225
*1069 FILLER_31_237
*1070 FILLER_31_249
*1071 FILLER_31_261
*1072 FILLER_31_27
*1073 FILLER_31_273
*1074 FILLER_31_279
*1075 FILLER_31_281
*1076 FILLER_31_293
*1077 FILLER_31_3
*1078 FILLER_31_305
*1079 FILLER_31_317
*1080 FILLER_31_329
*1081 FILLER_31_335
*1082 FILLER_31_337
*1083 FILLER_31_349
*1084 FILLER_31_361
*1085 FILLER_31_367
*1086 FILLER_31_39
*1087 FILLER_31_51
*1088 FILLER_31_55
*1089 FILLER_31_57
*1090 FILLER_31_69
*1091 FILLER_31_81
*1092 FILLER_31_93
*1093 FILLER_32_109
*1094 FILLER_32_121
*1095 FILLER_32_133
*1096 FILLER_32_139
*1097 FILLER_32_141
*1098 FILLER_32_15
*1099 FILLER_32_153
*1100 FILLER_32_165
*1101 FILLER_32_177
*1102 FILLER_32_189
*1103 FILLER_32_195
*1104 FILLER_32_197
*1105 FILLER_32_209
*1106 FILLER_32_221
*1107 FILLER_32_233
*1108 FILLER_32_245
*1109 FILLER_32_251
*1110 FILLER_32_253
*1111 FILLER_32_265
*1112 FILLER_32_27
*1113 FILLER_32_277
*1114 FILLER_32_289
*1115 FILLER_32_29
*1116 FILLER_32_3
*1117 FILLER_32_301
*1118 FILLER_32_307
*1119 FILLER_32_309
*1120 FILLER_32_321
*1121 FILLER_32_333
*1122 FILLER_32_345
*1123 FILLER_32_357
*1124 FILLER_32_363
*1125 FILLER_32_365
*1126 FILLER_32_41
*1127 FILLER_32_53
*1128 FILLER_32_65
*1129 FILLER_32_77
*1130 FILLER_32_83
*1131 FILLER_32_85
*1132 FILLER_32_97
*1133 FILLER_33_105
*1134 FILLER_33_111
*1135 FILLER_33_113
*1136 FILLER_33_125
*1137 FILLER_33_137
*1138 FILLER_33_149
*1139 FILLER_33_15
*1140 FILLER_33_161
*1141 FILLER_33_167
*1142 FILLER_33_169
*1143 FILLER_33_181
*1144 FILLER_33_193
*1145 FILLER_33_205
*1146 FILLER_33_217
*1147 FILLER_33_223
*1148 FILLER_33_225
*1149 FILLER_33_237
*1150 FILLER_33_249
*1151 FILLER_33_261
*1152 FILLER_33_27
*1153 FILLER_33_273
*1154 FILLER_33_279
*1155 FILLER_33_281
*1156 FILLER_33_293
*1157 FILLER_33_3
*1158 FILLER_33_305
*1159 FILLER_33_317
*1160 FILLER_33_329
*1161 FILLER_33_335
*1162 FILLER_33_337
*1163 FILLER_33_349
*1164 FILLER_33_361
*1165 FILLER_33_367
*1166 FILLER_33_39
*1167 FILLER_33_51
*1168 FILLER_33_55
*1169 FILLER_33_57
*1170 FILLER_33_69
*1171 FILLER_33_81
*1172 FILLER_33_93
*1173 FILLER_34_109
*1174 FILLER_34_121
*1175 FILLER_34_133
*1176 FILLER_34_139
*1177 FILLER_34_141
*1178 FILLER_34_15
*1179 FILLER_34_153
*1180 FILLER_34_165
*1181 FILLER_34_177
*1182 FILLER_34_189
*1183 FILLER_34_195
*1184 FILLER_34_197
*1185 FILLER_34_209
*1186 FILLER_34_221
*1187 FILLER_34_233
*1188 FILLER_34_245
*1189 FILLER_34_251
*1190 FILLER_34_253
*1191 FILLER_34_265
*1192 FILLER_34_27
*1193 FILLER_34_277
*1194 FILLER_34_289
*1195 FILLER_34_29
*1196 FILLER_34_3
*1197 FILLER_34_301
*1198 FILLER_34_307
*1199 FILLER_34_309
*1200 FILLER_34_321
*1201 FILLER_34_333
*1202 FILLER_34_345
*1203 FILLER_34_357
*1204 FILLER_34_363
*1205 FILLER_34_365
*1206 FILLER_34_41
*1207 FILLER_34_53
*1208 FILLER_34_65
*1209 FILLER_34_77
*1210 FILLER_34_83
*1211 FILLER_34_85
*1212 FILLER_34_97
*1213 FILLER_35_105
*1214 FILLER_35_111
*1215 FILLER_35_113
*1216 FILLER_35_125
*1217 FILLER_35_137
*1218 FILLER_35_149
*1219 FILLER_35_15
*1220 FILLER_35_161
*1221 FILLER_35_167
*1222 FILLER_35_169
*1223 FILLER_35_181
*1224 FILLER_35_193
*1225 FILLER_35_205
*1226 FILLER_35_217
*1227 FILLER_35_223
*1228 FILLER_35_225
*1229 FILLER_35_237
*1230 FILLER_35_249
*1231 FILLER_35_261
*1232 FILLER_35_27
*1233 FILLER_35_273
*1234 FILLER_35_279
*1235 FILLER_35_281
*1236 FILLER_35_293
*1237 FILLER_35_3
*1238 FILLER_35_305
*1239 FILLER_35_317
*1240 FILLER_35_329
*1241 FILLER_35_335
*1242 FILLER_35_337
*1243 FILLER_35_349
*1244 FILLER_35_361
*1245 FILLER_35_367
*1246 FILLER_35_39
*1247 FILLER_35_51
*1248 FILLER_35_55
*1249 FILLER_35_57
*1250 FILLER_35_69
*1251 FILLER_35_81
*1252 FILLER_35_93
*1253 FILLER_36_109
*1254 FILLER_36_121
*1255 FILLER_36_133
*1256 FILLER_36_139
*1257 FILLER_36_141
*1258 FILLER_36_15
*1259 FILLER_36_153
*1260 FILLER_36_165
*1261 FILLER_36_177
*1262 FILLER_36_189
*1263 FILLER_36_195
*1264 FILLER_36_197
*1265 FILLER_36_209
*1266 FILLER_36_221
*1267 FILLER_36_233
*1268 FILLER_36_245
*1269 FILLER_36_251
*1270 FILLER_36_253
*1271 FILLER_36_265
*1272 FILLER_36_27
*1273 FILLER_36_277
*1274 FILLER_36_289
*1275 FILLER_36_29
*1276 FILLER_36_3
*1277 FILLER_36_301
*1278 FILLER_36_307
*1279 FILLER_36_309
*1280 FILLER_36_321
*1281 FILLER_36_333
*1282 FILLER_36_345
*1283 FILLER_36_357
*1284 FILLER_36_363
*1285 FILLER_36_365
*1286 FILLER_36_41
*1287 FILLER_36_53
*1288 FILLER_36_65
*1289 FILLER_36_77
*1290 FILLER_36_83
*1291 FILLER_36_85
*1292 FILLER_36_97
*1293 FILLER_37_105
*1294 FILLER_37_111
*1295 FILLER_37_113
*1296 FILLER_37_125
*1297 FILLER_37_137
*1298 FILLER_37_149
*1299 FILLER_37_15
*1300 FILLER_37_161
*1301 FILLER_37_167
*1302 FILLER_37_169
*1303 FILLER_37_181
*1304 FILLER_37_193
*1305 FILLER_37_205
*1306 FILLER_37_217
*1307 FILLER_37_223
*1308 FILLER_37_225
*1309 FILLER_37_237
*1310 FILLER_37_249
*1311 FILLER_37_261
*1312 FILLER_37_27
*1313 FILLER_37_273
*1314 FILLER_37_279
*1315 FILLER_37_281
*1316 FILLER_37_293
*1317 FILLER_37_3
*1318 FILLER_37_305
*1319 FILLER_37_317
*1320 FILLER_37_329
*1321 FILLER_37_335
*1322 FILLER_37_337
*1323 FILLER_37_349
*1324 FILLER_37_361
*1325 FILLER_37_367
*1326 FILLER_37_39
*1327 FILLER_37_51
*1328 FILLER_37_55
*1329 FILLER_37_57
*1330 FILLER_37_69
*1331 FILLER_37_81
*1332 FILLER_37_93
*1333 FILLER_38_109
*1334 FILLER_38_121
*1335 FILLER_38_133
*1336 FILLER_38_139
*1337 FILLER_38_141
*1338 FILLER_38_15
*1339 FILLER_38_153
*1340 FILLER_38_165
*1341 FILLER_38_177
*1342 FILLER_38_189
*1343 FILLER_38_195
*1344 FILLER_38_197
*1345 FILLER_38_209
*1346 FILLER_38_221
*1347 FILLER_38_233
*1348 FILLER_38_245
*1349 FILLER_38_251
*1350 FILLER_38_253
*1351 FILLER_38_265
*1352 FILLER_38_27
*1353 FILLER_38_277
*1354 FILLER_38_289
*1355 FILLER_38_29
*1356 FILLER_38_3
*1357 FILLER_38_301
*1358 FILLER_38_307
*1359 FILLER_38_309
*1360 FILLER_38_321
*1361 FILLER_38_333
*1362 FILLER_38_345
*1363 FILLER_38_357
*1364 FILLER_38_363
*1365 FILLER_38_365
*1366 FILLER_38_41
*1367 FILLER_38_53
*1368 FILLER_38_65
*1369 FILLER_38_77
*1370 FILLER_38_83
*1371 FILLER_38_85
*1372 FILLER_38_97
*1373 FILLER_39_105
*1374 FILLER_39_111
*1375 FILLER_39_113
*1376 FILLER_39_125
*1377 FILLER_39_137
*1378 FILLER_39_149
*1379 FILLER_39_15
*1380 FILLER_39_161
*1381 FILLER_39_167
*1382 FILLER_39_169
*1383 FILLER_39_181
*1384 FILLER_39_193
*1385 FILLER_39_205
*1386 FILLER_39_217
*1387 FILLER_39_223
*1388 FILLER_39_225
*1389 FILLER_39_237
*1390 FILLER_39_249
*1391 FILLER_39_261
*1392 FILLER_39_27
*1393 FILLER_39_273
*1394 FILLER_39_279
*1395 FILLER_39_281
*1396 FILLER_39_293
*1397 FILLER_39_3
*1398 FILLER_39_305
*1399 FILLER_39_317
*1400 FILLER_39_329
*1401 FILLER_39_335
*1402 FILLER_39_337
*1403 FILLER_39_349
*1404 FILLER_39_361
*1405 FILLER_39_367
*1406 FILLER_39_39
*1407 FILLER_39_51
*1408 FILLER_39_55
*1409 FILLER_39_57
*1410 FILLER_39_69
*1411 FILLER_39_81
*1412 FILLER_39_93
*1413 FILLER_3_103
*1414 FILLER_3_111
*1415 FILLER_3_113
*1416 FILLER_3_119
*1417 FILLER_3_131
*1418 FILLER_3_143
*1419 FILLER_3_15
*1420 FILLER_3_155
*1421 FILLER_3_167
*1422 FILLER_3_169
*1423 FILLER_3_181
*1424 FILLER_3_193
*1425 FILLER_3_205
*1426 FILLER_3_217
*1427 FILLER_3_223
*1428 FILLER_3_225
*1429 FILLER_3_237
*1430 FILLER_3_249
*1431 FILLER_3_261
*1432 FILLER_3_27
*1433 FILLER_3_273
*1434 FILLER_3_279
*1435 FILLER_3_281
*1436 FILLER_3_293
*1437 FILLER_3_3
*1438 FILLER_3_305
*1439 FILLER_3_317
*1440 FILLER_3_329
*1441 FILLER_3_33
*1442 FILLER_3_335
*1443 FILLER_3_337
*1444 FILLER_3_349
*1445 FILLER_3_361
*1446 FILLER_3_367
*1447 FILLER_3_53
*1448 FILLER_3_57
*1449 FILLER_3_75
*1450 FILLER_3_95
*1451 FILLER_40_109
*1452 FILLER_40_121
*1453 FILLER_40_133
*1454 FILLER_40_139
*1455 FILLER_40_141
*1456 FILLER_40_15
*1457 FILLER_40_153
*1458 FILLER_40_165
*1459 FILLER_40_177
*1460 FILLER_40_189
*1461 FILLER_40_195
*1462 FILLER_40_197
*1463 FILLER_40_209
*1464 FILLER_40_221
*1465 FILLER_40_233
*1466 FILLER_40_245
*1467 FILLER_40_251
*1468 FILLER_40_253
*1469 FILLER_40_265
*1470 FILLER_40_27
*1471 FILLER_40_277
*1472 FILLER_40_289
*1473 FILLER_40_29
*1474 FILLER_40_3
*1475 FILLER_40_301
*1476 FILLER_40_307
*1477 FILLER_40_309
*1478 FILLER_40_321
*1479 FILLER_40_333
*1480 FILLER_40_345
*1481 FILLER_40_357
*1482 FILLER_40_363
*1483 FILLER_40_365
*1484 FILLER_40_41
*1485 FILLER_40_53
*1486 FILLER_40_65
*1487 FILLER_40_77
*1488 FILLER_40_83
*1489 FILLER_40_85
*1490 FILLER_40_97
*1491 FILLER_41_105
*1492 FILLER_41_111
*1493 FILLER_41_113
*1494 FILLER_41_125
*1495 FILLER_41_137
*1496 FILLER_41_149
*1497 FILLER_41_15
*1498 FILLER_41_161
*1499 FILLER_41_167
*1500 FILLER_41_169
*1501 FILLER_41_181
*1502 FILLER_41_193
*1503 FILLER_41_205
*1504 FILLER_41_217
*1505 FILLER_41_223
*1506 FILLER_41_225
*1507 FILLER_41_237
*1508 FILLER_41_249
*1509 FILLER_41_261
*1510 FILLER_41_27
*1511 FILLER_41_273
*1512 FILLER_41_279
*1513 FILLER_41_281
*1514 FILLER_41_293
*1515 FILLER_41_3
*1516 FILLER_41_305
*1517 FILLER_41_317
*1518 FILLER_41_329
*1519 FILLER_41_335
*1520 FILLER_41_337
*1521 FILLER_41_349
*1522 FILLER_41_361
*1523 FILLER_41_367
*1524 FILLER_41_39
*1525 FILLER_41_51
*1526 FILLER_41_55
*1527 FILLER_41_57
*1528 FILLER_41_69
*1529 FILLER_41_81
*1530 FILLER_41_93
*1531 FILLER_42_109
*1532 FILLER_42_121
*1533 FILLER_42_133
*1534 FILLER_42_139
*1535 FILLER_42_141
*1536 FILLER_42_15
*1537 FILLER_42_153
*1538 FILLER_42_165
*1539 FILLER_42_177
*1540 FILLER_42_189
*1541 FILLER_42_195
*1542 FILLER_42_197
*1543 FILLER_42_209
*1544 FILLER_42_221
*1545 FILLER_42_233
*1546 FILLER_42_245
*1547 FILLER_42_251
*1548 FILLER_42_253
*1549 FILLER_42_265
*1550 FILLER_42_27
*1551 FILLER_42_277
*1552 FILLER_42_289
*1553 FILLER_42_29
*1554 FILLER_42_3
*1555 FILLER_42_301
*1556 FILLER_42_307
*1557 FILLER_42_309
*1558 FILLER_42_321
*1559 FILLER_42_333
*1560 FILLER_42_345
*1561 FILLER_42_357
*1562 FILLER_42_363
*1563 FILLER_42_365
*1564 FILLER_42_41
*1565 FILLER_42_53
*1566 FILLER_42_65
*1567 FILLER_42_77
*1568 FILLER_42_83
*1569 FILLER_42_85
*1570 FILLER_42_97
*1571 FILLER_43_105
*1572 FILLER_43_111
*1573 FILLER_43_113
*1574 FILLER_43_125
*1575 FILLER_43_137
*1576 FILLER_43_149
*1577 FILLER_43_15
*1578 FILLER_43_161
*1579 FILLER_43_167
*1580 FILLER_43_169
*1581 FILLER_43_181
*1582 FILLER_43_193
*1583 FILLER_43_205
*1584 FILLER_43_217
*1585 FILLER_43_223
*1586 FILLER_43_225
*1587 FILLER_43_237
*1588 FILLER_43_249
*1589 FILLER_43_261
*1590 FILLER_43_27
*1591 FILLER_43_273
*1592 FILLER_43_279
*1593 FILLER_43_281
*1594 FILLER_43_293
*1595 FILLER_43_3
*1596 FILLER_43_305
*1597 FILLER_43_317
*1598 FILLER_43_329
*1599 FILLER_43_335
*1600 FILLER_43_337
*1601 FILLER_43_349
*1602 FILLER_43_361
*1603 FILLER_43_367
*1604 FILLER_43_39
*1605 FILLER_43_51
*1606 FILLER_43_55
*1607 FILLER_43_57
*1608 FILLER_43_69