*SPEF "ieee 1481-1999"
*DESIGN "R4_butter"
*DATE "11:11:11 Fri 11 11, 1111"
*VENDOR "OpenRCX"
*PROGRAM "Parallel Extraction"
*VERSION "1.0"
*DESIGN_FLOW "NAME_SCOPE LOCAL" "PIN_CAP NONE"
*DIVIDER /
*DELIMITER :
*BUS_DELIMITER []
*T_UNIT 1 NS
*C_UNIT 1 PF
*R_UNIT 1 OHM
*L_UNIT 1 HENRY

*NAME_MAP
*1 CLK
*2 RST
*3 Xio[0]
*4 net14
*5 net15
*6 net16
*7 Xro[0]
*8 net17
*9 net18
*10 net19
*11 c1
*12 c2
*13 c3
*16 xi0[0]
*17 xi0[1]
*18 xi0[2]
*19 xi0[3]
*20 xi1[0]
*21 xi1[1]
*22 xi1[2]
*23 xi1[3]
*24 xi2[0]
*25 xi2[1]
*26 xi2[2]
*27 xi2[3]
*28 xi3[0]
*29 xi3[1]
*30 xi3[2]
*31 xi3[3]
*32 xr0[0]
*33 xr0[1]
*34 xr0[2]
*35 xr0[3]
*36 xr1[0]
*37 xr1[1]
*38 xr1[2]
*39 xr1[3]
*40 xr2[0]
*41 xr2[1]
*42 xr2[2]
*43 xr2[3]
*44 xr3[0]
*45 xr3[1]
*46 xr3[2]
*47 xr3[3]
*48 Q1
*49 Q10
*50 Q11
*51 Q12
*52 Q2
*53 Q5
*54 Q6
*55 Q8
*56 _00_
*57 _01_
*58 _02_
*59 _03_
*60 _04_
*61 _05_
*62 _06_
*63 _07_
*64 _08_
*65 _09_
*66 _10_
*67 _11_
*68 _12_
*69 _13_
*70 _14_
*71 _15_
*72 _16_
*73 _17_
*74 _18_
*75 _19_
*76 _20_
*77 _21_
*78 _22_
*79 _23_
*80 _24_
*81 _25_
*82 _26_
*83 _27_
*84 _28_
*85 _29_
*86 _30_
*87 _31_
*88 _32_
*89 net1
*90 net10
*91 net11
*92 net12
*93 net13
*94 net2
*95 net3
*96 net4
*97 net5
*98 net6
*99 net7
*100 net8
*101 net9
*102 FILLER_0_102
*103 FILLER_0_110
*104 FILLER_0_113
*105 FILLER_0_12
*106 FILLER_0_125
*107 FILLER_0_137
*108 FILLER_0_141
*109 FILLER_0_153
*110 FILLER_0_157
*111 FILLER_0_163
*112 FILLER_0_167
*113 FILLER_0_169
*114 FILLER_0_181
*115 FILLER_0_19
*116 FILLER_0_193
*117 FILLER_0_197
*118 FILLER_0_209
*119 FILLER_0_221
*120 FILLER_0_225
*121 FILLER_0_237
*122 FILLER_0_249
*123 FILLER_0_253
*124 FILLER_0_26
*125 FILLER_0_265
*126 FILLER_0_277
*127 FILLER_0_281
*128 FILLER_0_29
*129 FILLER_0_293
*130 FILLER_0_297
*131 FILLER_0_3
*132 FILLER_0_306
*133 FILLER_0_309
*134 FILLER_0_315
*135 FILLER_0_324
*136 FILLER_0_33
*137 FILLER_0_333
*138 FILLER_0_337
*139 FILLER_0_342
*140 FILLER_0_351
*141 FILLER_0_357
*142 FILLER_0_362
*143 FILLER_0_365
*144 FILLER_0_37
*145 FILLER_0_41
*146 FILLER_0_45
*147 FILLER_0_54
*148 FILLER_0_57
*149 FILLER_0_63
*150 FILLER_0_72
*151 FILLER_0_85
*152 FILLER_0_90
*153 FILLER_10_109
*154 FILLER_10_121
*155 FILLER_10_133
*156 FILLER_10_139
*157 FILLER_10_141
*158 FILLER_10_15
*159 FILLER_10_153
*160 FILLER_10_165
*161 FILLER_10_177
*162 FILLER_10_189
*163 FILLER_10_195
*164 FILLER_10_197
*165 FILLER_10_209
*166 FILLER_10_221
*167 FILLER_10_233
*168 FILLER_10_245
*169 FILLER_10_251
*170 FILLER_10_253
*171 FILLER_10_265
*172 FILLER_10_27
*173 FILLER_10_277
*174 FILLER_10_289
*175 FILLER_10_29
*176 FILLER_10_3
*177 FILLER_10_301
*178 FILLER_10_307
*179 FILLER_10_309
*180 FILLER_10_321
*181 FILLER_10_333
*182 FILLER_10_345
*183 FILLER_10_357
*184 FILLER_10_363
*185 FILLER_10_365
*186 FILLER_10_41
*187 FILLER_10_53
*188 FILLER_10_65
*189 FILLER_10_77
*190 FILLER_10_83
*191 FILLER_10_85
*192 FILLER_10_97
*193 FILLER_11_105
*194 FILLER_11_111
*195 FILLER_11_113
*196 FILLER_11_125
*197 FILLER_11_137
*198 FILLER_11_149
*199 FILLER_11_15
*200 FILLER_11_161
*201 FILLER_11_167
*202 FILLER_11_169
*203 FILLER_11_181
*204 FILLER_11_193
*205 FILLER_11_205
*206 FILLER_11_217
*207 FILLER_11_223
*208 FILLER_11_225
*209 FILLER_11_237
*210 FILLER_11_249
*211 FILLER_11_261
*212 FILLER_11_27
*213 FILLER_11_273
*214 FILLER_11_279
*215 FILLER_11_281
*216 FILLER_11_293
*217 FILLER_11_3
*218 FILLER_11_305
*219 FILLER_11_317
*220 FILLER_11_329
*221 FILLER_11_335
*222 FILLER_11_337
*223 FILLER_11_349
*224 FILLER_11_361
*225 FILLER_11_367
*226 FILLER_11_39
*227 FILLER_11_51
*228 FILLER_11_55
*229 FILLER_11_57
*230 FILLER_11_69
*231 FILLER_11_81
*232 FILLER_11_93
*233 FILLER_12_109
*234 FILLER_12_121
*235 FILLER_12_133
*236 FILLER_12_139
*237 FILLER_12_141
*238 FILLER_12_15
*239 FILLER_12_153
*240 FILLER_12_165
*241 FILLER_12_177
*242 FILLER_12_189
*243 FILLER_12_195
*244 FILLER_12_197
*245 FILLER_12_209
*246 FILLER_12_221
*247 FILLER_12_233
*248 FILLER_12_245
*249 FILLER_12_251
*250 FILLER_12_253
*251 FILLER_12_265
*252 FILLER_12_27
*253 FILLER_12_277
*254 FILLER_12_289
*255 FILLER_12_29
*256 FILLER_12_3
*257 FILLER_12_301
*258 FILLER_12_307
*259 FILLER_12_309
*260 FILLER_12_321
*261 FILLER_12_333
*262 FILLER_12_345
*263 FILLER_12_357
*264 FILLER_12_363
*265 FILLER_12_365
*266 FILLER_12_41
*267 FILLER_12_53
*268 FILLER_12_65
*269 FILLER_12_77
*270 FILLER_12_83
*271 FILLER_12_85
*272 FILLER_12_97
*273 FILLER_13_105
*274 FILLER_13_111
*275 FILLER_13_113
*276 FILLER_13_125
*277 FILLER_13_137
*278 FILLER_13_149
*279 FILLER_13_15
*280 FILLER_13_161
*281 FILLER_13_167
*282 FILLER_13_169
*283 FILLER_13_181
*284 FILLER_13_193
*285 FILLER_13_205
*286 FILLER_13_217
*287 FILLER_13_223
*288 FILLER_13_225
*289 FILLER_13_237
*290 FILLER_13_249
*291 FILLER_13_261
*292 FILLER_13_27
*293 FILLER_13_273
*294 FILLER_13_279
*295 FILLER_13_281
*296 FILLER_13_293
*297 FILLER_13_3
*298 FILLER_13_305
*299 FILLER_13_317
*300 FILLER_13_329
*301 FILLER_13_335
*302 FILLER_13_337
*303 FILLER_13_349
*304 FILLER_13_361
*305 FILLER_13_367
*306 FILLER_13_39
*307 FILLER_13_51
*308 FILLER_13_55
*309 FILLER_13_57
*310 FILLER_13_69
*311 FILLER_13_81
*312 FILLER_13_93
*313 FILLER_14_109
*314 FILLER_14_121
*315 FILLER_14_133
*316 FILLER_14_139
*317 FILLER_14_141
*318 FILLER_14_15
*319 FILLER_14_153
*320 FILLER_14_165
*321 FILLER_14_177
*322 FILLER_14_189
*323 FILLER_14_195
*324 FILLER_14_197
*325 FILLER_14_209
*326 FILLER_14_221
*327 FILLER_14_233
*328 FILLER_14_245
*329 FILLER_14_251
*330 FILLER_14_253
*331 FILLER_14_265
*332 FILLER_14_27
*333 FILLER_14_277
*334 FILLER_14_289
*335 FILLER_14_29
*336 FILLER_14_3
*337 FILLER_14_301
*338 FILLER_14_307
*339 FILLER_14_309
*340 FILLER_14_321
*341 FILLER_14_333
*342 FILLER_14_345
*343 FILLER_14_357
*344 FILLER_14_363
*345 FILLER_14_365
*346 FILLER_14_41
*347 FILLER_14_53
*348 FILLER_14_65
*349 FILLER_14_77
*350 FILLER_14_83
*351 FILLER_14_85
*352 FILLER_14_97
*353 FILLER_15_105
*354 FILLER_15_111
*355 FILLER_15_113
*356 FILLER_15_125
*357 FILLER_15_137
*358 FILLER_15_149
*359 FILLER_15_15
*360 FILLER_15_161
*361 FILLER_15_167
*362 FILLER_15_169
*363 FILLER_15_181
*364 FILLER_15_193
*365 FILLER_15_205
*366 FILLER_15_217
*367 FILLER_15_223
*368 FILLER_15_225
*369 FILLER_15_237
*370 FILLER_15_249
*371 FILLER_15_261
*372 FILLER_15_27
*373 FILLER_15_273
*374 FILLER_15_279
*375 FILLER_15_281
*376 FILLER_15_293
*377 FILLER_15_3
*378 FILLER_15_305
*379 FILLER_15_317
*380 FILLER_15_329
*381 FILLER_15_335
*382 FILLER_15_337
*383 FILLER_15_349
*384 FILLER_15_361
*385 FILLER_15_367
*386 FILLER_15_39
*387 FILLER_15_51
*388 FILLER_15_55
*389 FILLER_15_57
*390 FILLER_15_69
*391 FILLER_15_81
*392 FILLER_15_93
*393 FILLER_16_109
*394 FILLER_16_121
*395 FILLER_16_133
*396 FILLER_16_139
*397 FILLER_16_141
*398 FILLER_16_15
*399 FILLER_16_153
*400 FILLER_16_165
*401 FILLER_16_177
*402 FILLER_16_189
*403 FILLER_16_195
*404 FILLER_16_197
*405 FILLER_16_209
*406 FILLER_16_221
*407 FILLER_16_233
*408 FILLER_16_245
*409 FILLER_16_251
*410 FILLER_16_253
*411 FILLER_16_265
*412 FILLER_16_27
*413 FILLER_16_277
*414 FILLER_16_289
*415 FILLER_16_29
*416 FILLER_16_3
*417 FILLER_16_301
*418 FILLER_16_307
*419 FILLER_16_309
*420 FILLER_16_321
*421 FILLER_16_333
*422 FILLER_16_345
*423 FILLER_16_357
*424 FILLER_16_363
*425 FILLER_16_365
*426 FILLER_16_41
*427 FILLER_16_53
*428 FILLER_16_65
*429 FILLER_16_77
*430 FILLER_16_83
*431 FILLER_16_85
*432 FILLER_16_97
*433 FILLER_17_105
*434 FILLER_17_111
*435 FILLER_17_113
*436 FILLER_17_125
*437 FILLER_17_137
*438 FILLER_17_149
*439 FILLER_17_15
*440 FILLER_17_161
*441 FILLER_17_167
*442 FILLER_17_169
*443 FILLER_17_181
*444 FILLER_17_193
*445 FILLER_17_205
*446 FILLER_17_217
*447 FILLER_17_223
*448 FILLER_17_225
*449 FILLER_17_237
*450 FILLER_17_249
*451 FILLER_17_261
*452 FILLER_17_27
*453 FILLER_17_273
*454 FILLER_17_279
*455 FILLER_17_281
*456 FILLER_17_293
*457 FILLER_17_3
*458 FILLER_17_305
*459 FILLER_17_317
*460 FILLER_17_329
*461 FILLER_17_335
*462 FILLER_17_337
*463 FILLER_17_349
*464 FILLER_17_361
*465 FILLER_17_367
*466 FILLER_17_39
*467 FILLER_17_51
*468 FILLER_17_55
*469 FILLER_17_57
*470 FILLER_17_69
*471 FILLER_17_81
*472 FILLER_17_93
*473 FILLER_18_109
*474 FILLER_18_121
*475 FILLER_18_133
*476 FILLER_18_139
*477 FILLER_18_141
*478 FILLER_18_15
*479 FILLER_18_153
*480 FILLER_18_165
*481 FILLER_18_177
*482 FILLER_18_189
*483 FILLER_18_195
*484 FILLER_18_197
*485 FILLER_18_209
*486 FILLER_18_221
*487 FILLER_18_233
*488 FILLER_18_245
*489 FILLER_18_251
*490 FILLER_18_253
*491 FILLER_18_265
*492 FILLER_18_27
*493 FILLER_18_277
*494 FILLER_18_289
*495 FILLER_18_29
*496 FILLER_18_3
*497 FILLER_18_301
*498 FILLER_18_307
*499 FILLER_18_309
*500 FILLER_18_321
*501 FILLER_18_333
*502 FILLER_18_345
*503 FILLER_18_357
*504 FILLER_18_363
*505 FILLER_18_365
*506 FILLER_18_41
*507 FILLER_18_53
*508 FILLER_18_65
*509 FILLER_18_77
*510 FILLER_18_83
*511 FILLER_18_85
*512 FILLER_18_97
*513 FILLER_19_105
*514 FILLER_19_111
*515 FILLER_19_113
*516 FILLER_19_125
*517 FILLER_19_137
*518 FILLER_19_149
*519 FILLER_19_15
*520 FILLER_19_161
*521 FILLER_19_167
*522 FILLER_19_169
*523 FILLER_19_181
*524 FILLER_19_193
*525 FILLER_19_205
*526 FILLER_19_217
*527 FILLER_19_223
*528 FILLER_19_225
*529 FILLER_19_237
*530 FILLER_19_249
*531 FILLER_19_261
*532 FILLER_19_27
*533 FILLER_19_273
*534 FILLER_19_279
*535 FILLER_19_281
*536 FILLER_19_293
*537 FILLER_19_3
*538 FILLER_19_305
*539 FILLER_19_317
*540 FILLER_19_329
*541 FILLER_19_335
*542 FILLER_19_337
*543 FILLER_19_349
*544 FILLER_19_361
*545 FILLER_19_367
*546 FILLER_19_39
*547 FILLER_19_51
*548 FILLER_19_55
*549 FILLER_19_57
*550 FILLER_19_69
*551 FILLER_19_81
*552 FILLER_19_93
*553 FILLER_1_106
*554 FILLER_1_113
*555 FILLER_1_122
*556 FILLER_1_142
*557 FILLER_1_154
*558 FILLER_1_166
*559 FILLER_1_169
*560 FILLER_1_175
*561 FILLER_1_179
*562 FILLER_1_191
*563 FILLER_1_203
*564 FILLER_1_215
*565 FILLER_1_22
*566 FILLER_1_223
*567 FILLER_1_225
*568 FILLER_1_237
*569 FILLER_1_249
*570 FILLER_1_261
*571 FILLER_1_273
*572 FILLER_1_279
*573 FILLER_1_281
*574 FILLER_1_3
*575 FILLER_1_300
*576 FILLER_1_31
*577 FILLER_1_312
*578 FILLER_1_324
*579 FILLER_1_337
*580 FILLER_1_349
*581 FILLER_1_360
*582 FILLER_1_39
*583 FILLER_1_45
*584 FILLER_1_54
*585 FILLER_1_57
*586 FILLER_1_68
*587 FILLER_1_77
*588 FILLER_1_81
*589 FILLER_1_85
*590 FILLER_1_89
*591 FILLER_1_9
*592 FILLER_20_109
*593 FILLER_20_121
*594 FILLER_20_133
*595 FILLER_20_139
*596 FILLER_20_141
*597 FILLER_20_15
*598 FILLER_20_153
*599 FILLER_20_165
*600 FILLER_20_177
*601 FILLER_20_189
*602 FILLER_20_195
*603 FILLER_20_197
*604 FILLER_20_209
*605 FILLER_20_221
*606 FILLER_20_233
*607 FILLER_20_245
*608 FILLER_20_251
*609 FILLER_20_253
*610 FILLER_20_265
*611 FILLER_20_27
*612 FILLER_20_277
*613 FILLER_20_289
*614 FILLER_20_29
*615 FILLER_20_3
*616 FILLER_20_301
*617 FILLER_20_307
*618 FILLER_20_309
*619 FILLER_20_321
*620 FILLER_20_333
*621 FILLER_20_345
*622 FILLER_20_357
*623 FILLER_20_363
*624 FILLER_20_365
*625 FILLER_20_41
*626 FILLER_20_53
*627 FILLER_20_65
*628 FILLER_20_77
*629 FILLER_20_83
*630 FILLER_20_85
*631 FILLER_20_97
*632 FILLER_21_105
*633 FILLER_21_111
*634 FILLER_21_113
*635 FILLER_21_125
*636 FILLER_21_137
*637 FILLER_21_149
*638 FILLER_21_15
*639 FILLER_21_161
*640 FILLER_21_167
*641 FILLER_21_169
*642 FILLER_21_181
*643 FILLER_21_193
*644 FILLER_21_205
*645 FILLER_21_217
*646 FILLER_21_223
*647 FILLER_21_225
*648 FILLER_21_237
*649 FILLER_21_249
*650 FILLER_21_261
*651 FILLER_21_27
*652 FILLER_21_273
*653 FILLER_21_279
*654 FILLER_21_281
*655 FILLER_21_293
*656 FILLER_21_3
*657 FILLER_21_305
*658 FILLER_21_317
*659 FILLER_21_329
*660 FILLER_21_335
*661 FILLER_21_337
*662 FILLER_21_349
*663 FILLER_21_361
*664 FILLER_21_367
*665 FILLER_21_39
*666 FILLER_21_51
*667 FILLER_21_55
*668 FILLER_21_57
*669 FILLER_21_69
*670 FILLER_21_81
*671 FILLER_21_93
*672 FILLER_22_109
*673 FILLER_22_121
*674 FILLER_22_133
*675 FILLER_22_139
*676 FILLER_22_141
*677 FILLER_22_15
*678 FILLER_22_153
*679 FILLER_22_165
*680 FILLER_22_177
*681 FILLER_22_189
*682 FILLER_22_195
*683 FILLER_22_197
*684 FILLER_22_209
*685 FILLER_22_221
*686 FILLER_22_233
*687 FILLER_22_245
*688 FILLER_22_251
*689 FILLER_22_253
*690 FILLER_22_265
*691 FILLER_22_27
*692 FILLER_22_277
*693 FILLER_22_289
*694 FILLER_22_29
*695 FILLER_22_3
*696 FILLER_22_301
*697 FILLER_22_307
*698 FILLER_22_309
*699 FILLER_22_321
*700 FILLER_22_333
*701 FILLER_22_345
*702 FILLER_22_357
*703 FILLER_22_363
*704 FILLER_22_365
*705 FILLER_22_41
*706 FILLER_22_53
*707 FILLER_22_65
*708 FILLER_22_77
*709 FILLER_22_83
*710 FILLER_22_85
*711 FILLER_22_97
*712 FILLER_23_105
*713 FILLER_23_111
*714 FILLER_23_113
*715 FILLER_23_125
*716 FILLER_23_137
*717 FILLER_23_149
*718 FILLER_23_15
*719 FILLER_23_161
*720 FILLER_23_167
*721 FILLER_23_169
*722 FILLER_23_181
*723 FILLER_23_193
*724 FILLER_23_205
*725 FILLER_23_217
*726 FILLER_23_223
*727 FILLER_23_225
*728 FILLER_23_237
*729 FILLER_23_249
*730 FILLER_23_261
*731 FILLER_23_27
*732 FILLER_23_273
*733 FILLER_23_279
*734 FILLER_23_281
*735 FILLER_23_293
*736 FILLER_23_3
*737 FILLER_23_305
*738 FILLER_23_317
*739 FILLER_23_329
*740 FILLER_23_335
*741 FILLER_23_337
*742 FILLER_23_349
*743 FILLER_23_361
*744 FILLER_23_367
*745 FILLER_23_39
*746 FILLER_23_51
*747 FILLER_23_55
*748 FILLER_23_57
*749 FILLER_23_69
*750 FILLER_23_81
*751 FILLER_23_93
*752 FILLER_24_109
*753 FILLER_24_121
*754 FILLER_24_133
*755 FILLER_24_139
*756 FILLER_24_141
*757 FILLER_24_15
*758 FILLER_24_153
*759 FILLER_24_165
*760 FILLER_24_177
*761 FILLER_24_189
*762 FILLER_24_195
*763 FILLER_24_197
*764 FILLER_24_209
*765 FILLER_24_221
*766 FILLER_24_233
*767 FILLER_24_245
*768 FILLER_24_251
*769 FILLER_24_253
*770 FILLER_24_265
*771 FILLER_24_27
*772 FILLER_24_277
*773 FILLER_24_289
*774 FILLER_24_29
*775 FILLER_24_3
*776 FILLER_24_301
*777 FILLER_24_307
*778 FILLER_24_309
*779 FILLER_24_321
*780 FILLER_24_333
*781 FILLER_24_345
*782 FILLER_24_357
*783 FILLER_24_363
*784 FILLER_24_365
*785 FILLER_24_41
*786 FILLER_24_53
*787 FILLER_24_65
*788 FILLER_24_77
*789 FILLER_24_83
*790 FILLER_24_85
*791 FILLER_24_97
*792 FILLER_25_105
*793 FILLER_25_111
*794 FILLER_25_113
*795 FILLER_25_125
*796 FILLER_25_137
*797 FILLER_25_149
*798 FILLER_25_15
*799 FILLER_25_161
*800 FILLER_25_167
*801 FILLER_25_169
*802 FILLER_25_181
*803 FILLER_25_193
*804 FILLER_25_205
*805 FILLER_25_217
*806 FILLER_25_223
*807 FILLER_25_225
*808 FILLER_25_237
*809 FILLER_25_249
*810 FILLER_25_261
*811 FILLER_25_27
*812 FILLER_25_273
*813 FILLER_25_279
*814 FILLER_25_281
*815 FILLER_25_293
*816 FILLER_25_3
*817 FILLER_25_305
*818 FILLER_25_317
*819 FILLER_25_329
*820 FILLER_25_335
*821 FILLER_25_337
*822 FILLER_25_349
*823 FILLER_25_361
*824 FILLER_25_367
*825 FILLER_25_39
*826 FILLER_25_51
*827 FILLER_25_55
*828 FILLER_25_57
*829 FILLER_25_69
*830 FILLER_25_81
*831 FILLER_25_93
*832 FILLER_26_109
*833 FILLER_26_121
*834 FILLER_26_133
*835 FILLER_26_139
*836 FILLER_26_141
*837 FILLER_26_15
*838 FILLER_26_153
*839 FILLER_26_165
*840 FILLER_26_177
*841 FILLER_26_189
*842 FILLER_26_195
*843 FILLER_26_197
*844 FILLER_26_209
*845 FILLER_26_221
*846 FILLER_26_233
*847 FILLER_26_245
*848 FILLER_26_251
*849 FILLER_26_253
*850 FILLER_26_265
*851 FILLER_26_27
*852 FILLER_26_277
*853 FILLER_26_289
*854 FILLER_26_29
*855 FILLER_26_3
*856 FILLER_26_301
*857 FILLER_26_307
*858 FILLER_26_309
*859 FILLER_26_321
*860 FILLER_26_333
*861 FILLER_26_345
*862 FILLER_26_357
*863 FILLER_26_363
*864 FILLER_26_365
*865 FILLER_26_41
*866 FILLER_26_53
*867 FILLER_26_65
*868 FILLER_26_77
*869 FILLER_26_83
*870 FILLER_26_85
*871 FILLER_26_97
*872 FILLER_27_105
*873 FILLER_27_111
*874 FILLER_27_113
*875 FILLER_27_125
*876 FILLER_27_137
*877 FILLER_27_149
*878 FILLER_27_15
*879 FILLER_27_161
*880 FILLER_27_167
*881 FILLER_27_169
*882 FILLER_27_181
*883 FILLER_27_193
*884 FILLER_27_205
*885 FILLER_27_217
*886 FILLER_27_223
*887 FILLER_27_225
*888 FILLER_27_237
*889 FILLER_27_249
*890 FILLER_27_261
*891 FILLER_27_27
*892 FILLER_27_273
*893 FILLER_27_279
*894 FILLER_27_281
*895 FILLER_27_293
*896 FILLER_27_3
*897 FILLER_27_305
*898 FILLER_27_317
*899 FILLER_27_329
*900 FILLER_27_335
*901 FILLER_27_337
*902 FILLER_27_349
*903 FILLER_27_361
*904 FILLER_27_367
*905 FILLER_27_39
*906 FILLER_27_51
*907 FILLER_27_55
*908 FILLER_27_57
*909 FILLER_27_69
*910 FILLER_27_81
*911 FILLER_27_93
*912 FILLER_28_109
*913 FILLER_28_121
*914 FILLER_28_133
*915 FILLER_28_139
*916 FILLER_28_141
*917 FILLER_28_15
*918 FILLER_28_153
*919 FILLER_28_165
*920 FILLER_28_177
*921 FILLER_28_189
*922 FILLER_28_195
*923 FILLER_28_197
*924 FILLER_28_209
*925 FILLER_28_221
*926 FILLER_28_233
*927 FILLER_28_245
*928 FILLER_28_251
*929 FILLER_28_253
*930 FILLER_28_265
*931 FILLER_28_27
*932 FILLER_28_277
*933 FILLER_28_289
*934 FILLER_28_29
*935 FILLER_28_3
*936 FILLER_28_301
*937 FILLER_28_307
*938 FILLER_28_309
*939 FILLER_28_321
*940 FILLER_28_333
*941 FILLER_28_345
*942 FILLER_28_357
*943 FILLER_28_363
*944 FILLER_28_365
*945 FILLER_28_41
*946 FILLER_28_53
*947 FILLER_28_65
*948 FILLER_28_77
*949 FILLER_28_83
*950 FILLER_28_85
*951 FILLER_28_97
*952 FILLER_29_105
*953 FILLER_29_111
*954 FILLER_29_113
*955 FILLER_29_125
*956 FILLER_29_137
*957 FILLER_29_149
*958 FILLER_29_15
*959 FILLER_29_161
*960 FILLER_29_167
*961 FILLER_29_169
*962 FILLER_29_181
*963 FILLER_29_193
*964 FILLER_29_205
*965 FILLER_29_217
*966 FILLER_29_223
*967 FILLER_29_225
*968 FILLER_29_237
*969 FILLER_29_249
*970 FILLER_29_261
*971 FILLER_29_27
*972 FILLER_29_273
*973 FILLER_29_279
*974 FILLER_29_281
*975 FILLER_29_293
*976 FILLER_29_3
*977 FILLER_29_305
*978 FILLER_29_317
*979 FILLER_29_329
*980 FILLER_29_335
*981 FILLER_29_337
*982 FILLER_29_349
*983 FILLER_29_361
*984 FILLER_29_367
*985 FILLER_29_39
*986 FILLER_29_51
*987 FILLER_29_55
*988 FILLER_29_57
*989 FILLER_29_69
*990 FILLER_29_81
*991 FILLER_29_93
*992 FILLER_2_103
*993 FILLER_2_116
*994 FILLER_2_129
*995 FILLER_2_137
*996 FILLER_2_141
*997 FILLER_2_15
*998 FILLER_2_152
*999 FILLER_2_158
*1000 FILLER_2_162
*1001 FILLER_2_169
*1002 FILLER_2_181
*1003 FILLER_2_193
*1004 FILLER_2_197
*1005 FILLER_2_209
*1006 FILLER_2_221
*1007 FILLER_2_233
*1008 FILLER_2_245
*1009 FILLER_2_251
*1010 FILLER_2_253
*1011 FILLER_2_26
*1012 FILLER_2_265
*1013 FILLER_2_287
*1014 FILLER_2_29
*1015 FILLER_2_299
*1016 FILLER_2_3
*1017 FILLER_2_307
*1018 FILLER_2_309
*1019 FILLER_2_321
*1020 FILLER_2_333
*1021 FILLER_2_345
*1022 FILLER_2_35
*1023 FILLER_2_357
*1024 FILLER_2_363
*1025 FILLER_2_365
*1026 FILLER_2_55
*1027 FILLER_2_61
*1028 FILLER_2_69
*1029 FILLER_2_76
*1030 FILLER_2_85
*1031 FILLER_30_109
*1032 FILLER_30_121
*1033 FILLER_30_133
*1034 FILLER_30_139
*1035 FILLER_30_141
*1036 FILLER_30_15
*1037 FILLER_30_153
*1038 FILLER_30_165
*1039 FILLER_30_177
*1040 FILLER_30_189
*1041 FILLER_30_195
*1042 FILLER_30_197
*1043 FILLER_30_209
*1044 FILLER_30_221
*1045 FILLER_30_233
*1046 FILLER_30_245
*1047 FILLER_30_251
*1048 FILLER_30_253
*1049 FILLER_30_265
*1050 FILLER_30_27
*1051 FILLER_30_277
*1052 FILLER_30_289
*1053 FILLER_30_29
*1054 FILLER_30_3
*1055 FILLER_30_301
*1056 FILLER_30_307
*1057 FILLER_30_309
*1058 FILLER_30_321
*1059 FILLER_30_333
*1060 FILLER_30_345
*1061 FILLER_30_357
*1062 FILLER_30_363
*1063 FILLER_30_365
*1064 FILLER_30_41
*1065 FILLER_30_53
*1066 FILLER_30_65
*1067 FILLER_30_77
*1068 FILLER_30_83
*1069 FILLER_30_85
*1070 FILLER_30_97
*1071 FILLER_31_105
*1072 FILLER_31_111
*1073 FILLER_31_113
*1074 FILLER_31_125
*1075 FILLER_31_137
*1076 FILLER_31_149
*1077 FILLER_31_15
*1078 FILLER_31_161
*1079 FILLER_31_167
*1080 FILLER_31_169
*1081 FILLER_31_181
*1082 FILLER_31_193
*1083 FILLER_31_205
*1084 FILLER_31_217
*1085 FILLER_31_223
*1086 FILLER_31_225
*1087 FILLER_31_237
*1088 FILLER_31_249
*1089 FILLER_31_261
*1090 FILLER_31_27
*1091 FILLER_31_273
*1092 FILLER_31_279
*1093 FILLER_31_281
*1094 FILLER_31_293
*1095 FILLER_31_3
*1096 FILLER_31_305
*1097 FILLER_31_317
*1098 FILLER_31_329
*1099 FILLER_31_335
*1100 FILLER_31_337
*1101 FILLER_31_349
*1102 FILLER_31_361
*1103 FILLER_31_367
*1104 FILLER_31_39
*1105 FILLER_31_51
*1106 FILLER_31_55
*1107 FILLER_31_57
*1108 FILLER_31_69
*1109 FILLER_31_81
*1110 FILLER_31_93
*1111 FILLER_32_109
*1112 FILLER_32_121
*1113 FILLER_32_133
*1114 FILLER_32_139
*1115 FILLER_32_141
*1116 FILLER_32_15
*1117 FILLER_32_153
*1118 FILLER_32_165
*1119 FILLER_32_177
*1120 FILLER_32_189
*1121 FILLER_32_195
*1122 FILLER_32_197
*1123 FILLER_32_209
*1124 FILLER_32_221
*1125 FILLER_32_233
*1126 FILLER_32_245
*1127 FILLER_32_251
*1128 FILLER_32_253
*1129 FILLER_32_265
*1130 FILLER_32_27
*1131 FILLER_32_277
*1132 FILLER_32_289
*1133 FILLER_32_29
*1134 FILLER_32_3
*1135 FILLER_32_301
*1136 FILLER_32_307
*1137 FILLER_32_309
*1138 FILLER_32_321
*1139 FILLER_32_333
*1140 FILLER_32_345
*1141 FILLER_32_357
*1142 FILLER_32_363
*1143 FILLER_32_365
*1144 FILLER_32_41
*1145 FILLER_32_53
*1146 FILLER_32_65
*1147 FILLER_32_77
*1148 FILLER_32_83
*1149 FILLER_32_85
*1150 FILLER_32_97
*1151 FILLER_33_105
*1152 FILLER_33_111
*1153 FILLER_33_113
*1154 FILLER_33_125
*1155 FILLER_33_137
*1156 FILLER_33_149
*1157 FILLER_33_15
*1158 FILLER_33_161
*1159 FILLER_33_167
*1160 FILLER_33_169
*1161 FILLER_33_181
*1162 FILLER_33_193
*1163 FILLER_33_205
*1164 FILLER_33_217
*1165 FILLER_33_223
*1166 FILLER_33_225
*1167 FILLER_33_237
*1168 FILLER_33_249
*1169 FILLER_33_261
*1170 FILLER_33_27
*1171 FILLER_33_273
*1172 FILLER_33_279
*1173 FILLER_33_281
*1174 FILLER_33_293
*1175 FILLER_33_3
*1176 FILLER_33_305
*1177 FILLER_33_317
*1178 FILLER_33_329
*1179 FILLER_33_335
*1180 FILLER_33_337
*1181 FILLER_33_349
*1182 FILLER_33_361
*1183 FILLER_33_367
*1184 FILLER_33_39
*1185 FILLER_33_51
*1186 FILLER_33_55
*1187 FILLER_33_57
*1188 FILLER_33_69
*1189 FILLER_33_81
*1190 FILLER_33_93
*1191 FILLER_34_109
*1192 FILLER_34_121
*1193 FILLER_34_133
*1194 FILLER_34_139
*1195 FILLER_34_141
*1196 FILLER_34_15
*1197 FILLER_34_153
*1198 FILLER_34_165
*1199 FILLER_34_177
*1200 FILLER_34_189
*1201 FILLER_34_195
*1202 FILLER_34_197
*1203 FILLER_34_209
*1204 FILLER_34_221
*1205 FILLER_34_233
*1206 FILLER_34_245
*1207 FILLER_34_251
*1208 FILLER_34_253
*1209 FILLER_34_265
*1210 FILLER_34_27
*1211 FILLER_34_277
*1212 FILLER_34_289
*1213 FILLER_34_29
*1214 FILLER_34_3
*1215 FILLER_34_301
*1216 FILLER_34_307
*1217 FILLER_34_309
*1218 FILLER_34_321
*1219 FILLER_34_333
*1220 FILLER_34_345
*1221 FILLER_34_357
*1222 FILLER_34_363
*1223 FILLER_34_365
*1224 FILLER_34_41
*1225 FILLER_34_53
*1226 FILLER_34_65
*1227 FILLER_34_77
*1228 FILLER_34_83
*1229 FILLER_34_85
*1230 FILLER_34_97
*1231 FILLER_35_105
*1232 FILLER_35_111
*1233 FILLER_35_113
*1234 FILLER_35_125
*1235 FILLER_35_137
*1236 FILLER_35_149
*1237 FILLER_35_15
*1238 FILLER_35_161
*1239 FILLER_35_167
*1240 FILLER_35_169
*1241 FILLER_35_181
*1242 FILLER_35_193
*1243 FILLER_35_205
*1244 FILLER_35_217
*1245 FILLER_35_223
*1246 FILLER_35_225
*1247 FILLER_35_237
*1248 FILLER_35_249
*1249 FILLER_35_261
*1250 FILLER_35_27
*1251 FILLER_35_273
*1252 FILLER_35_279
*1253 FILLER_35_281
*1254 FILLER_35_293
*1255 FILLER_35_3
*1256 FILLER_35_305
*1257 FILLER_35_317
*1258 FILLER_35_329
*1259 FILLER_35_335
*1260 FILLER_35_337
*1261 FILLER_35_349
*1262 FILLER_35_361
*1263 FILLER_35_367
*1264 FILLER_35_39
*1265 FILLER_35_51
*1266 FILLER_35_55
*1267 FILLER_35_57
*1268 FILLER_35_69
*1269 FILLER_35_81
*1270 FILLER_35_93
*1271 FILLER_36_109
*1272 FILLER_36_121
*1273 FILLER_36_133
*1274 FILLER_36_139
*1275 FILLER_36_141
*1276 FILLER_36_15
*1277 FILLER_36_153
*1278 FILLER_36_165
*1279 FILLER_36_177
*1280 FILLER_36_189
*1281 FILLER_36_195
*1282 FILLER_36_197
*1283 FILLER_36_209
*1284 FILLER_36_221
*1285 FILLER_36_233
*1286 FILLER_36_245
*1287 FILLER_36_251
*1288 FILLER_36_253
*1289 FILLER_36_265
*1290 FILLER_36_27
*1291 FILLER_36_277
*1292 FILLER_36_289
*1293 FILLER_36_29
*1294 FILLER_36_3
*1295 FILLER_36_301
*1296 FILLER_36_307
*1297 FILLER_36_309
*1298 FILLER_36_321
*1299 FILLER_36_333
*1300 FILLER_36_345
*1301 FILLER_36_357
*1302 FILLER_36_363
*1303 FILLER_36_365
*1304 FILLER_36_41
*1305 FILLER_36_53
*1306 FILLER_36_65
*1307 FILLER_36_77
*1308 FILLER_36_83
*1309 FILLER_36_85
*1310 FILLER_36_97
*1311 FILLER_37_105
*1312 FILLER_37_111
*1313 FILLER_37_113
*1314 FILLER_37_125
*1315 FILLER_37_137
*1316 FILLER_37_149
*1317 FILLER_37_15
*1318 FILLER_37_161
*1319 FILLER_37_167
*1320 FILLER_37_169
*1321 FILLER_37_181
*1322 FILLER_37_193
*1323 FILLER_37_205
*1324 FILLER_37_217
*1325 FILLER_37_223
*1326 FILLER_37_225
*1327 FILLER_37_237
*1328 FILLER_37_249
*1329 FILLER_37_261
*1330 FILLER_37_27
*1331 FILLER_37_273
*1332 FILLER_37_279
*1333 FILLER_37_281
*1334 FILLER_37_293
*1335 FILLER_37_3
*1336 FILLER_37_305
*1337 FILLER_37_317
*1338 FILLER_37_329
*1339 FILLER_37_335
*1340 FILLER_37_337
*1341 FILLER_37_349
*1342 FILLER_37_361
*1343 FILLER_37_367
*1344 FILLER_37_39
*1345 FILLER_37_51
*1346 FILLER_37_55
*1347 FILLER_37_57
*1348 FILLER_37_69
*1349 FILLER_37_81
*1350 FILLER_37_93
*1351 FILLER_38_109
*1352 FILLER_38_121
*1353 FILLER_38_133
*1354 FILLER_38_139
*1355 FILLER_38_141
*1356 FILLER_38_15
*1357 FILLER_38_153
*1358 FILLER_38_165
*1359 FILLER_38_177
*1360 FILLER_38_189
*1361 FILLER_38_195
*1362 FILLER_38_197
*1363 FILLER_38_209
*1364 FILLER_38_221
*1365 FILLER_38_233
*1366 FILLER_38_245
*1367 FILLER_38_251
*1368 FILLER_38_253
*1369 FILLER_38_265
*1370 FILLER_38_27
*1371 FILLER_38_277
*1372 FILLER_38_289
*1373 FILLER_38_29
*1374 FILLER_38_3
*1375 FILLER_38_301
*1376 FILLER_38_307
*1377 FILLER_38_309
*1378 FILLER_38_321
*1379 FILLER_38_333
*1380 FILLER_38_345
*1381 FILLER_38_357
*1382 FILLER_38_363
*1383 FILLER_38_365
*1384 FILLER_38_41
*1385 FILLER_38_53
*1386 FILLER_38_65
*1387 FILLER_38_77
*1388 FILLER_38_83
*1389 FILLER_38_85
*1390 FILLER_38_97
*1391 FILLER_39_105
*1392 FILLER_39_111
*1393 FILLER_39_113
*1394 FILLER_39_125
*1395 FILLER_39_137
*1396 FILLER_39_149
*1397 FILLER_39_15
*1398 FILLER_39_161
*1399 FILLER_39_167
*1400 FILLER_39_169
*1401 FILLER_39_181
*1402 FILLER_39_193
*1403 FILLER_39_205
*1404 FILLER_39_217
*1405 FILLER_39_223
*1406 FILLER_39_225
*1407 FILLER_39_237
*1408 FILLER_39_249
*1409 FILLER_39_261
*1410 FILLER_39_27
*1411 FILLER_39_273
*1412 FILLER_39_279
*1413 FILLER_39_281
*1414 FILLER_39_293
*1415 FILLER_39_3
*1416 FILLER_39_305
*1417 FILLER_39_317
*1418 FILLER_39_329
*1419 FILLER_39_335
*1420 FILLER_39_337
*1421 FILLER_39_349
*1422 FILLER_39_361
*1423 FILLER_39_367
*1424 FILLER_39_39
*1425 FILLER_39_51
*1426 FILLER_39_55
*1427 FILLER_39_57
*1428 FILLER_39_69
*1429 FILLER_39_81
*1430 FILLER_39_93
*1431 FILLER_3_111
*1432 FILLER_3_113
*1433 FILLER_3_121
*1434 FILLER_3_140
*1435 FILLER_3_15
*1436 FILLER_3_153
*1437 FILLER_3_166
*1438 FILLER_3_169
*1439 FILLER_3_177
*1440 FILLER_3_182
*1441 FILLER_3_194
*1442 FILLER_3_206
*1443 FILLER_3_218
*1444 FILLER_3_225
*1445 FILLER_3_237
*1446 FILLER_3_249
*1447 FILLER_3_261
*1448 FILLER_3_27
*1449 FILLER_3_273
*1450 FILLER_3_279
*1451 FILLER_3_281
*1452 FILLER_3_293
*1453 FILLER_3_3
*1454 FILLER_3_305
*1455 FILLER_3_317
*1456 FILLER_3_329
*1457 FILLER_3_335
*1458 FILLER_3_337
*1459 FILLER_3_349
*1460 FILLER_3_36
*1461 FILLER_3_361
*1462 FILLER_3_367
*1463 FILLER_3_43
*1464 FILLER_3_55
*1465 FILLER_3_57
*1466 FILLER_3_75
*1467 FILLER_3_87
*1468 FILLER_3_99
*1469 FILLER_40_109
*1470 FILLER_40_121
*1471 FILLER_40_133
*1472 FILLER_40_139
*1473 FILLER_40_141
*1474 FILLER_40_15
*1475 FILLER_40_153
*1476 FILLER_40_165
*1477 FILLER_40_177
*1478 FILLER_40_189
*1479 FILLER_40_195
*1480 FILLER_40_197
*1481 FILLER_40_209
*1482 FILLER_40_221
*1483 FILLER_40_233
*1484 FILLER_40_245
*1485 FILLER_40_251
*1486 FILLER_40_253
*1487 FILLER_40_265
*1488 FILLER_40_27
*1489 FILLER_40_277
*1490 FILLER_40_289
*1491 FILLER_40_29
*1492 FILLER_40_3
*1493 FILLER_40_301
*1494 FILLER_40_307
*1495 FILLER_40_309
*1496 FILLER_40_321
*1497 FILLER_40_333
*1498 FILLER_40_345
*1499 FILLER_40_357
*1500 FILLER_40_363
*1501 FILLER_40_365
*1502 FILLER_40_41
*1503 FILLER_40_53
*1504 FILLER_40_65
*1505 FILLER_40_77
*1506 FILLER_40_83
*1507 FILLER_40_85
*1508 FILLER_40_97
*1509 FILLER_41_105
*1510 FILLER_41_111
*1511 FILLER_41_113
*1512 FILLER_41_125
*1513 FILLER_41_137
*1514 FILLER_41_149
*1515 FILLER_41_15
*1516 FILLER_41_161
*1517 FILLER_41_167
*1518 FILLER_41_169
*1519 FILLER_41_181
*1520 FILLER_41_193
*1521 FILLER_41_205
*1522 FILLER_41_217
*1523 FILLER_41_223
*1524 FILLER_41_225
*1525 FILLER_41_237
*1526 FILLER_41_249
*1527 FILLER_41_261
*1528 FILLER_41_27
*1529 FILLER_41_273
*1530 FILLER_41_279
*1531 FILLER_41_281
*1532 FILLER_41_293
*1533 FILLER_41_3
*1534 FILLER_41_305
*1535 FILLER_41_317
*1536 FILLER_41_329
*1537 FILLER_41_335
*1538 FILLER_41_337
*1539 FILLER_41_349
*1540 FILLER_41_361
*1541 FILLER_41_367
*1542 FILLER_41_39
*1543 FILLER_41_51
*1544 FILLER_41_55
*1545 FILLER_41_57
*1546 FILLER_41_69
*1547 FILLER_41_81
*1548 FILLER_41_93
*1549 FILLER_42_109
*1550 FILLER_42_121
*1551 FILLER_42_133
*1552 FILLER_42_139
*1553 FILLER_42_141
*1554 FILLER_42_15
*1555 FILLER_42_153
*1556 FILLER_42_165
*1557 FILLER_42_177
*1558 FILLER_42_189
*1559 FILLER_42_195
*1560 FILLER_42_197
*1561 FILLER_42_209
*1562 FILLER_42_221
*1563 FILLER_42_233
*1564 FILLER_42_245
*1565 FILLER_42_251
*1566 FILLER_42_253
*1567 FILLER_42_265
*1568 FILLER_42_27
*1569 FILLER_42_277
*1570 FILLER_42_289
*1571 FILLER_42_29
*1572 FILLER_42_3
*1573 FILLER_42_301
*1574 FILLER_42_307
*1575 FILLER_42_309
*1576 FILLER_42_321
*1577 FILLER_42_333
*1578 FILLER_42_345
*1579 FILLER_42_357
*1580 FILLER_42_363
*1581 FILLER_42_365
*1582 FILLER_42_41
*1583 FILLER_42_53
*1584 FILLER_42_65
*1585 FILLER_42_77
*1586 FILLER_42_83
*1587 FILLER_42_85
*1588 FILLER_42_97
*1589 FILLER_43_105
*1590 FILLER_43_111
*1591 FILLER_43_113
*1592 FILLER_43_125
*1593 FILLER_43_137
*1594 FILLER_43_149
*1595 FILLER_43_15
*1596 FILLER_43_161
*1597 FILLER_43_167
*1598 FILLER_43_169
*1599 FILLER_43_181
*1600 FILLER_43_193
*1601 FILLER_43_205
*1602 FILLER_43_217
*1603 FILLER_43_223
*1604 FILLER_43_225
*1605 FILLER_43_237
*1606 FILLER_43_249
*1607 FILLER_43_261
*1608 FILLER_43_27
*1609 FILLER_43_273
*1610 FILLER_43_279
*1611 FILLER_43_281
*1612 FILLER_43_293
*1613 FILLER_43_3
*1614 FILLER_43_305